data_image0
_cell_length_a       10.1886
_cell_length_b       10.3422
_cell_length_c       10.47
_cell_angle_alpha    90
_cell_angle_beta     80
_cell_angle_gamma    90

_symmetry_space_group_name_H-M    "P 1"
_symmetry_int_tables_number       1

loop_
  _symmetry_equiv_pos_as_xyz
  'x, y, z'

loop_
  _atom_site_label
  _atom_site_occupancy
  _atom_site_fract_x
  _atom_site_fract_y
  _atom_site_fract_z
  _atom_site_thermal_displace_type
  _atom_site_B_iso_or_equiv
  _atom_site_type_symbol
  Hf1      1.0000 0.15072  0.00344  0.15507  Biso   1.000  Hf
  Hf2      1.0000 0.13385  0.01901  0.64863  Biso   1.000  Hf
  Hf3      1.0000 0.14449  0.52811  0.14944  Biso   1.000  Hf
  Hf4      1.0000 0.13660  0.52413  0.64515  Biso   1.000  Hf
  Hf5      1.0000 0.63118  0.01680  0.14612  Biso   1.000  Hf
  Hf6      1.0000 0.63547  0.02321  0.64801  Biso   1.000  Hf
  Hf7      1.0000 0.64061  0.51955  0.14735  Biso   1.000  Hf
  Hf8      1.0000 0.63985  0.52222  0.64448  Biso   1.000  Hf
  Hf9      1.0000 0.13743  0.23176  0.39699  Biso   1.000  Hf
  La1      1.0000 0.13245  0.24511  0.88603  Biso   1.000  La
  Hf10     1.0000 0.13902  0.72932  0.40143  Biso   1.000  Hf
  Hf11     1.0000 0.13570  0.72849  0.89580  Biso   1.000  Hf
  Hf12     1.0000 0.63640  0.22922  0.39874  Biso   1.000  Hf
  Hf13     1.0000 0.63539  0.23128  0.89706  Biso   1.000  Hf
  Hf14     1.0000 0.63885  0.72858  0.39595  Biso   1.000  Hf
  Hf15     1.0000 0.63861  0.73050  0.89679  Biso   1.000  Hf
  Hf16     1.0000 0.36237  0.27204  0.10760  Biso   1.000  Hf
  Hf17     1.0000 0.36264  0.27368  0.60192  Biso   1.000  Hf
  Hf18     1.0000 0.36801  0.76689  0.10136  Biso   1.000  Hf
  Hf19     1.0000 0.36282  0.77259  0.60691  Biso   1.000  Hf
  La2      1.0000 0.86863  0.25969  0.11080  Biso   1.000  La
  Hf20     1.0000 0.85917  0.27384  0.60603  Biso   1.000  Hf
  Hf21     1.0000 0.86424  0.77016  0.10322  Biso   1.000  Hf
  Hf22     1.0000 0.85890  0.77470  0.60231  Biso   1.000  Hf
  Hf23     1.0000 0.36154  0.48001  0.35555  Biso   1.000  Hf
  Hf24     1.0000 0.36560  0.48361  0.85396  Biso   1.000  Hf
  Hf25     1.0000 0.36355  0.98097  0.36012  Biso   1.000  Hf
  Hf26     1.0000 0.35902  0.98062  0.85563  Biso   1.000  Hf
  Hf27     1.0000 0.86377  0.48196  0.35545  Biso   1.000  Hf
  Hf28     1.0000 0.85242  0.48258  0.85269  Biso   1.000  Hf
  Hf29     1.0000 0.85971  0.98211  0.35210  Biso   1.000  Hf
  Hf30     1.0000 0.85717  0.97509  0.85352  Biso   1.000  Hf
  Hf31     1.0000 0.03293  0.16888  0.58047  Biso   1.000  Hf
  Hf32     1.0000 0.04253  0.67723  0.08446  Biso   1.000  Hf
  Hf33     1.0000 0.03503  0.67641  0.58363  Biso   1.000  Hf
  Hf34     1.0000 0.53317  0.16812  0.08185  Biso   1.000  Hf
  Hf35     1.0000 0.53477  0.16944  0.57993  Biso   1.000  Hf
  Hf36     1.0000 0.53829  0.66620  0.07847  Biso   1.000  Hf
  Hf37     1.0000 0.53635  0.67042  0.58072  Biso   1.000  Hf
  Hf38     1.0000 0.02455  0.10402  0.30280  Biso   1.000  Hf
  Hf39     1.0000 0.03000  0.06260  0.83473  Biso   1.000  Hf
  Hf40     1.0000 0.03889  0.58381  0.33731  Biso   1.000  Hf
  Hf41     1.0000 0.03679  0.57221  0.83553  Biso   1.000  Hf
  Hf42     1.0000 0.52649  0.08397  0.33270  Biso   1.000  Hf
  Hf43     1.0000 0.52839  0.08382  0.83121  Biso   1.000  Hf
  Hf44     1.0000 0.53452  0.58335  0.33145  Biso   1.000  Hf
  Hf45     1.0000 0.53715  0.58246  0.83060  Biso   1.000  Hf
  Hf46     1.0000 0.46398  0.41932  0.17322  Biso   1.000  Hf
  Hf47     1.0000 0.47116  0.41838  0.66983  Biso   1.000  Hf
  Hf48     1.0000 0.46081  0.91763  0.17293  Biso   1.000  Hf
  Hf49     1.0000 0.46490  0.91861  0.67384  Biso   1.000  Hf
  Hf50     1.0000 0.97295  0.43202  0.17234  Biso   1.000  Hf
  Hf51     1.0000 0.96133  0.42656  0.66339  Biso   1.000  Hf
  Hf52     1.0000 0.96523  0.93445  0.15673  Biso   1.000  Hf
  Hf53     1.0000 0.96004  0.92164  0.66524  Biso   1.000  Hf
  Hf54     1.0000 0.46350  0.33261  0.42104  Biso   1.000  Hf
  Hf55     1.0000 0.45550  0.32718  0.92030  Biso   1.000  Hf
  Hf56     1.0000 0.46606  0.83233  0.42235  Biso   1.000  Hf
  Hf57     1.0000 0.46513  0.83391  0.92125  Biso   1.000  Hf
  Hf58     1.0000 0.96290  0.33221  0.42020  Biso   1.000  Hf
  Hf59     1.0000 0.92829  0.31846  0.89782  Biso   1.000  Hf
  Hf60     1.0000 0.96872  0.83846  0.41575  Biso   1.000  Hf
  Hf61     1.0000 0.95705  0.82198  0.91589  Biso   1.000  Hf
  Hf62     1.0000 0.27384  0.12770  0.24744  Biso   1.000  Hf
  Hf63     1.0000 0.28031  0.12540  0.73325  Biso   1.000  Hf
  Hf64     1.0000 0.27966  0.63246  0.24373  Biso   1.000  Hf
  Hf65     1.0000 0.27476  0.63335  0.74197  Biso   1.000  Hf
  Hf66     1.0000 0.75659  0.11694  0.25185  Biso   1.000  Hf
  Hf67     1.0000 0.77062  0.13045  0.74113  Biso   1.000  Hf
  Hf68     1.0000 0.77768  0.62928  0.24056  Biso   1.000  Hf
  Hf69     1.0000 0.77491  0.63299  0.73960  Biso   1.000  Hf
  Hf70     1.0000 0.27096  0.12222  0.49207  Biso   1.000  Hf
  Hf71     1.0000 0.26245  0.11396  0.00821  Biso   1.000  Hf
  Hf72     1.0000 0.27578  0.62198  0.49319  Biso   1.000  Hf
  Hf73     1.0000 0.27611  0.62578  0.99006  Biso   1.000  Hf
  Hf74     1.0000 0.77665  0.12266  0.49164  Biso   1.000  Hf
  Hf75     1.0000 0.75815  0.10869  0.98896  Biso   1.000  Hf
  Hf76     1.0000 0.77734  0.62407  0.48946  Biso   1.000  Hf
  Hf77     1.0000 0.77470  0.62273  0.99321  Biso   1.000  Hf
  Hf78     1.0000 0.23379  0.39011  0.01704  Biso   1.000  Hf
  Hf79     1.0000 0.22150  0.38030  0.50781  Biso   1.000  Hf
  Hf80     1.0000 0.22921  0.87299  0.00873  Biso   1.000  Hf
  Hf81     1.0000 0.22530  0.87994  0.51256  Biso   1.000  Hf
  Hf82     1.0000 0.70948  0.38397  0.00827  Biso   1.000  Hf
  Hf83     1.0000 0.72483  0.38068  0.51008  Biso   1.000  Hf
  Hf84     1.0000 0.72409  0.87243  0.01183  Biso   1.000  Hf
  Hf85     1.0000 0.72391  0.88207  0.50829  Biso   1.000  Hf
  Hf86     1.0000 0.22427  0.37156  0.26221  Biso   1.000  Hf
  Hf87     1.0000 0.23768  0.38616  0.74502  Biso   1.000  Hf
  Hf88     1.0000 0.22430  0.87044  0.26279  Biso   1.000  Hf
  Hf89     1.0000 0.22332  0.87163  0.76164  Biso   1.000  Hf
  Hf90     1.0000 0.72083  0.37525  0.26736  Biso   1.000  Hf
  Hf91     1.0000 0.71936  0.37325  0.75739  Biso   1.000  Hf
  Hf92     1.0000 0.72907  0.86877  0.25937  Biso   1.000  Hf
  Hf93     1.0000 0.72084  0.87125  0.75857  Biso   1.000  Hf
