data_image0
_cell_length_a       10.1304
_cell_length_b       10.3104
_cell_length_c       10.5016
_cell_angle_alpha    90
_cell_angle_beta     90
_cell_angle_gamma    90

_symmetry_space_group_name_H-M    "P 1"
_symmetry_int_tables_number       1

loop_
  _symmetry_equiv_pos_as_xyz
  'x, y, z'

loop_
  _atom_site_label
  _atom_site_occupancy
  _atom_site_fract_x
  _atom_site_fract_y
  _atom_site_fract_z
  _atom_site_thermal_displace_type
  _atom_site_B_iso_or_equiv
  _atom_site_type_symbol
  La1      1.0000 0.13181  0.01040  0.15904  Biso   1.000  La
  Hf1      1.0000 0.14091  0.02141  0.67046  Biso   1.000  Hf
  Hf2      1.0000 0.13658  0.51997  0.17288  Biso   1.000  Hf
  Hf3      1.0000 0.13597  0.51858  0.67169  Biso   1.000  Hf
  Hf4      1.0000 0.13633  0.22861  0.42227  Biso   1.000  Hf
  Hf5      1.0000 0.13816  0.23386  0.91941  Biso   1.000  Hf
  Hf6      1.0000 0.13828  0.72683  0.42125  Biso   1.000  Hf
  Hf7      1.0000 0.13710  0.72679  0.92202  Biso   1.000  Hf
  Hf8      1.0000 0.35831  0.26968  0.17078  Biso   1.000  Hf
  Hf9      1.0000 0.35846  0.27350  0.67317  Biso   1.000  Hf
  Hf10     1.0000 0.36480  0.76675  0.16943  Biso   1.000  Hf
  Hf11     1.0000 0.35326  0.76566  0.67264  Biso   1.000  Hf
  Hf12     1.0000 0.35867  0.47791  0.42078  Biso   1.000  Hf
  Hf13     1.0000 0.35842  0.47917  0.92428  Biso   1.000  Hf
  Hf14     1.0000 0.35107  0.98082  0.41466  Biso   1.000  Hf
  Hf15     1.0000 0.36247  0.98028  0.91649  Biso   1.000  Hf
  Hf16     1.0000 0.64092  0.02142  0.07955  Biso   1.000  Hf
  La2      1.0000 0.63181  0.01040  0.59098  Biso   1.000  La
  Hf17     1.0000 0.63597  0.51859  0.07831  Biso   1.000  Hf
  Hf18     1.0000 0.63658  0.51997  0.57711  Biso   1.000  Hf
  Hf19     1.0000 0.63634  0.22862  0.32774  Biso   1.000  Hf
  Hf20     1.0000 0.63815  0.23386  0.83059  Biso   1.000  Hf
  Hf21     1.0000 0.63829  0.72684  0.32874  Biso   1.000  Hf
  Hf22     1.0000 0.63708  0.72679  0.82797  Biso   1.000  Hf
  Hf23     1.0000 0.85846  0.27350  0.07682  Biso   1.000  Hf
  Hf24     1.0000 0.85830  0.26968  0.57921  Biso   1.000  Hf
  Hf25     1.0000 0.85328  0.76565  0.07734  Biso   1.000  Hf
  Hf26     1.0000 0.86480  0.76674  0.58057  Biso   1.000  Hf
  Hf27     1.0000 0.85866  0.47791  0.32921  Biso   1.000  Hf
  Hf28     1.0000 0.85842  0.47918  0.82571  Biso   1.000  Hf
  Hf29     1.0000 0.85106  0.98082  0.33534  Biso   1.000  Hf
  Hf30     1.0000 0.86248  0.98028  0.83353  Biso   1.000  Hf
  Hf31     1.0000 0.03170  0.18663  0.08034  Biso   1.000  Hf
  Hf32     1.0000 0.03291  0.16904  0.58888  Biso   1.000  Hf
  Hf33     1.0000 0.03088  0.66712  0.08437  Biso   1.000  Hf
  Hf34     1.0000 0.03233  0.66219  0.58372  Biso   1.000  Hf
  Hf35     1.0000 0.02296  0.08625  0.34749  Biso   1.000  Hf
  Hf36     1.0000 0.03965  0.08155  0.83950  Biso   1.000  Hf
  Hf37     1.0000 0.02961  0.58545  0.33385  Biso   1.000  Hf
  Hf38     1.0000 0.02802  0.58635  0.83103  Biso   1.000  Hf
  Hf39     1.0000 0.46515  0.41563  0.08528  Biso   1.000  Hf
  Hf40     1.0000 0.46213  0.42066  0.58465  Biso   1.000  Hf
  Hf41     1.0000 0.46645  0.91716  0.08225  Biso   1.000  Hf
  Hf42     1.0000 0.43466  0.91013  0.57686  Biso   1.000  Hf
  Hf43     1.0000 0.46589  0.33746  0.33237  Biso   1.000  Hf
  Hf44     1.0000 0.46368  0.33726  0.83876  Biso   1.000  Hf
  Hf45     1.0000 0.47012  0.83665  0.33153  Biso   1.000  Hf
  Hf46     1.0000 0.47070  0.83952  0.82511  Biso   1.000  Hf
  Hf47     1.0000 0.27526  0.13044  0.29828  Biso   1.000  Hf
  Hf48     1.0000 0.27739  0.12454  0.79077  Biso   1.000  Hf
  Hf49     1.0000 0.27522  0.62000  0.29488  Biso   1.000  Hf
  Hf50     1.0000 0.27174  0.62203  0.79732  Biso   1.000  Hf
  Hf51     1.0000 0.28617  0.13454  0.03224  Biso   1.000  Hf
  Hf52     1.0000 0.27403  0.12680  0.54363  Biso   1.000  Hf
  Hf53     1.0000 0.27145  0.62083  0.04781  Biso   1.000  Hf
  Hf54     1.0000 0.27277  0.62541  0.54538  Biso   1.000  Hf
  Hf55     1.0000 0.22081  0.37419  0.29524  Biso   1.000  Hf
  Hf56     1.0000 0.22187  0.37611  0.79577  Biso   1.000  Hf
  Hf57     1.0000 0.23158  0.86132  0.29695  Biso   1.000  Hf
  Hf58     1.0000 0.22267  0.87301  0.79176  Biso   1.000  Hf
  Hf59     1.0000 0.22211  0.37732  0.04613  Biso   1.000  Hf
  Hf60     1.0000 0.22163  0.37703  0.54496  Biso   1.000  Hf
  Hf61     1.0000 0.24264  0.86033  0.03158  Biso   1.000  Hf
  Hf62     1.0000 0.20719  0.87665  0.54252  Biso   1.000  Hf
  Hf63     1.0000 0.53291  0.16906  0.16111  Biso   1.000  Hf
  Hf64     1.0000 0.53169  0.18664  0.66965  Biso   1.000  Hf
  Hf65     1.0000 0.53233  0.66220  0.16626  Biso   1.000  Hf
  Hf66     1.0000 0.53087  0.66714  0.66560  Biso   1.000  Hf
  Hf67     1.0000 0.52298  0.08623  0.40250  Biso   1.000  Hf
  Hf68     1.0000 0.53965  0.08154  0.91050  Biso   1.000  Hf
  Hf69     1.0000 0.52961  0.58544  0.41614  Biso   1.000  Hf
  Hf70     1.0000 0.52803  0.58633  0.91896  Biso   1.000  Hf
  Hf71     1.0000 0.96215  0.42064  0.16535  Biso   1.000  Hf
  Hf72     1.0000 0.96514  0.41562  0.66472  Biso   1.000  Hf
  Hf73     1.0000 0.93468  0.91009  0.17317  Biso   1.000  Hf
  Hf74     1.0000 0.96644  0.91712  0.66775  Biso   1.000  Hf
  Hf75     1.0000 0.96588  0.33746  0.41765  Biso   1.000  Hf
  Hf76     1.0000 0.96368  0.33727  0.91123  Biso   1.000  Hf
  Hf77     1.0000 0.97012  0.83667  0.41849  Biso   1.000  Hf
  Hf78     1.0000 0.97071  0.83954  0.92491  Biso   1.000  Hf
  Hf79     1.0000 0.77740  0.12454  0.95924  Biso   1.000  Hf
  Hf80     1.0000 0.77526  0.13045  0.45173  Biso   1.000  Hf
  Hf81     1.0000 0.77174  0.62202  0.95266  Biso   1.000  Hf
  Hf82     1.0000 0.77523  0.61999  0.45511  Biso   1.000  Hf
  Hf83     1.0000 0.77403  0.12681  0.20638  Biso   1.000  Hf
  Hf84     1.0000 0.78617  0.13454  0.71778  Biso   1.000  Hf
  Hf85     1.0000 0.77276  0.62543  0.20462  Biso   1.000  Hf
  Hf86     1.0000 0.77142  0.62082  0.70219  Biso   1.000  Hf
  Hf87     1.0000 0.72186  0.37611  0.95422  Biso   1.000  Hf
  Hf88     1.0000 0.72080  0.37419  0.45476  Biso   1.000  Hf
  Hf89     1.0000 0.72267  0.87300  0.95824  Biso   1.000  Hf
  Hf90     1.0000 0.73157  0.86132  0.45306  Biso   1.000  Hf
  Hf91     1.0000 0.72164  0.37703  0.20502  Biso   1.000  Hf
  Hf92     1.0000 0.72210  0.37732  0.70386  Biso   1.000  Hf
  Hf93     1.0000 0.70717  0.87669  0.20750  Biso   1.000  Hf
  Hf94     1.0000 0.74266  0.86034  0.71844  Biso   1.000  Hf
