data_image0
_cell_length_a       10.0443
_cell_length_b       10.4016
_cell_length_c       10.0879
_cell_angle_alpha    90
_cell_angle_beta     90
_cell_angle_gamma    90

_symmetry_space_group_name_H-M    "P 1"
_symmetry_int_tables_number       1

loop_
  _symmetry_equiv_pos_as_xyz
  'x, y, z'

loop_
  _atom_site_label
  _atom_site_occupancy
  _atom_site_fract_x
  _atom_site_fract_y
  _atom_site_fract_z
  _atom_site_thermal_displace_type
  _atom_site_B_iso_or_equiv
  _atom_site_type_symbol
  Hf1      1.0000 0.10762  0.98612  0.09120  Biso   1.000  Hf
  Hf2      1.0000 0.12878  0.01895  0.62975  Biso   1.000  Hf
  Hf3      1.0000 0.13812  0.51639  0.12457  Biso   1.000  Hf
  Hf4      1.0000 0.13197  0.51924  0.62329  Biso   1.000  Hf
  Hf5      1.0000 0.63546  0.01613  0.12390  Biso   1.000  Hf
  Hf6      1.0000 0.62816  0.02041  0.62713  Biso   1.000  Hf
  Hf7      1.0000 0.64143  0.51839  0.12424  Biso   1.000  Hf
  Hf8      1.0000 0.63063  0.51934  0.62663  Biso   1.000  Hf
  La1      1.0000 0.11692  0.24411  0.36827  Biso   1.000  La
  Hf9      1.0000 0.13227  0.23769  0.87877  Biso   1.000  Hf
  Hf10     1.0000 0.13437  0.73716  0.37377  Biso   1.000  Hf
  Hf11     1.0000 0.13499  0.73560  0.87172  Biso   1.000  Hf
  Hf12     1.0000 0.63628  0.23766  0.38012  Biso   1.000  Hf
  Hf13     1.0000 0.63400  0.23601  0.87304  Biso   1.000  Hf
  Hf14     1.0000 0.63269  0.73417  0.37712  Biso   1.000  Hf
  Hf15     1.0000 0.63240  0.73348  0.87230  Biso   1.000  Hf
  Hf16     1.0000 0.38199  0.27810  0.10842  Biso   1.000  Hf
  Hf17     1.0000 0.36241  0.27017  0.62612  Biso   1.000  Hf
  Hf18     1.0000 0.37125  0.76394  0.11995  Biso   1.000  Hf
  Hf19     1.0000 0.36391  0.77125  0.62070  Biso   1.000  Hf
  Hf20     1.0000 0.86984  0.26480  0.12365  Biso   1.000  Hf
  Hf21     1.0000 0.86350  0.27045  0.63300  Biso   1.000  Hf
  Hf22     1.0000 0.86513  0.76476  0.13280  Biso   1.000  Hf
  Hf23     1.0000 0.86666  0.76610  0.62307  Biso   1.000  Hf
  Hf24     1.0000 0.37056  0.48592  0.37331  Biso   1.000  Hf
  Hf25     1.0000 0.36426  0.49132  0.86816  Biso   1.000  Hf
  La2      1.0000 0.37215  0.99971  0.36196  Biso   1.000  La
  Hf26     1.0000 0.37320  0.98375  0.87646  Biso   1.000  Hf
  Hf27     1.0000 0.86251  0.48697  0.38014  Biso   1.000  Hf
  Hf28     1.0000 0.86509  0.48757  0.87565  Biso   1.000  Hf
  Hf29     1.0000 0.86482  0.98334  0.38251  Biso   1.000  Hf
  Hf30     1.0000 0.86183  0.98204  0.86967  Biso   1.000  Hf
  Hf31     1.0000 0.03371  0.15939  0.16795  Biso   1.000  Hf
  Hf32     1.0000 0.03307  0.18943  0.69631  Biso   1.000  Hf
  Hf33     1.0000 0.03294  0.67542  0.19637  Biso   1.000  Hf
  Hf34     1.0000 0.03300  0.68588  0.69944  Biso   1.000  Hf
  Hf35     1.0000 0.51718  0.17113  0.20872  Biso   1.000  Hf
  Hf36     1.0000 0.53244  0.18823  0.69813  Biso   1.000  Hf
  Hf37     1.0000 0.53748  0.68085  0.19688  Biso   1.000  Hf
  Hf38     1.0000 0.53321  0.68583  0.69443  Biso   1.000  Hf
  Hf39     1.0000 0.02245  0.05577  0.45705  Biso   1.000  Hf
  Hf40     1.0000 0.02810  0.06858  0.91927  Biso   1.000  Hf
  Hf41     1.0000 0.03466  0.56909  0.44722  Biso   1.000  Hf
  Hf42     1.0000 0.03082  0.57405  0.94767  Biso   1.000  Hf
  Hf43     1.0000 0.55069  0.07212  0.45239  Biso   1.000  Hf
  Hf44     1.0000 0.53010  0.07396  0.94616  Biso   1.000  Hf
  Hf45     1.0000 0.53576  0.56749  0.44586  Biso   1.000  Hf
  Hf46     1.0000 0.53454  0.56715  0.94506  Biso   1.000  Hf
  Hf47     1.0000 0.48133  0.43156  0.19615  Biso   1.000  Hf
  Hf48     1.0000 0.46280  0.43805  0.69490  Biso   1.000  Hf
  Hf49     1.0000 0.47248  0.92678  0.16538  Biso   1.000  Hf
  Hf50     1.0000 0.46670  0.93800  0.69554  Biso   1.000  Hf
  Hf51     1.0000 0.98199  0.41763  0.21081  Biso   1.000  Hf
  Hf52     1.0000 0.96439  0.43883  0.70162  Biso   1.000  Hf
  Hf53     1.0000 0.95809  0.92732  0.20582  Biso   1.000  Hf
  Hf54     1.0000 0.96497  0.93006  0.69842  Biso   1.000  Hf
  Hf55     1.0000 0.46157  0.31406  0.44442  Biso   1.000  Hf
  Hf56     1.0000 0.46424  0.32307  0.93810  Biso   1.000  Hf
  Hf57     1.0000 0.46996  0.81691  0.44862  Biso   1.000  Hf
  Hf58     1.0000 0.46416  0.81240  0.93592  Biso   1.000  Hf
  Hf59     1.0000 0.94863  0.33059  0.46356  Biso   1.000  Hf
  Hf60     1.0000 0.96241  0.32145  0.94794  Biso   1.000  Hf
  Hf61     1.0000 0.95948  0.81064  0.44284  Biso   1.000  Hf
  Hf62     1.0000 0.98281  0.83661  0.97165  Biso   1.000  Hf
  Hf63     1.0000 0.26747  0.12252  0.76575  Biso   1.000  Hf
  Hf64     1.0000 0.27165  0.61732  0.24621  Biso   1.000  Hf
  Hf65     1.0000 0.26735  0.62155  0.74535  Biso   1.000  Hf
  Hf66     1.0000 0.76600  0.12029  0.25110  Biso   1.000  Hf
  Hf67     1.0000 0.76434  0.11939  0.75244  Biso   1.000  Hf
  Hf68     1.0000 0.77254  0.61797  0.24914  Biso   1.000  Hf
  Hf69     1.0000 0.76842  0.61870  0.74851  Biso   1.000  Hf
  Hf70     1.0000 0.26161  0.13673  0.51742  Biso   1.000  Hf
  Hf71     1.0000 0.26466  0.12744  0.03146  Biso   1.000  Hf
  Hf72     1.0000 0.27082  0.63770  0.49512  Biso   1.000  Hf
  Hf73     1.0000 0.26711  0.63382  0.99482  Biso   1.000  Hf
  Hf74     1.0000 0.77287  0.13833  0.50508  Biso   1.000  Hf
  Hf75     1.0000 0.76564  0.13241  0.99983  Biso   1.000  Hf
  Hf76     1.0000 0.76802  0.63277  0.49976  Biso   1.000  Hf
  Hf77     1.0000 0.77026  0.63628  0.99795  Biso   1.000  Hf
  Hf78     1.0000 0.24055  0.39751  0.50281  Biso   1.000  Hf
  Hf79     1.0000 0.22929  0.38882  0.99104  Biso   1.000  Hf
  Hf80     1.0000 0.22010  0.87822  0.50095  Biso   1.000  Hf
  Hf81     1.0000 0.23630  0.88004  0.98747  Biso   1.000  Hf
  Hf82     1.0000 0.71986  0.38620  0.50141  Biso   1.000  Hf
  Hf83     1.0000 0.73672  0.38173  0.00069  Biso   1.000  Hf
  Hf84     1.0000 0.73126  0.88314  0.50362  Biso   1.000  Hf
  Hf85     1.0000 0.73097  0.88224  0.99900  Biso   1.000  Hf
  Hf86     1.0000 0.25111  0.36920  0.23443  Biso   1.000  Hf
  Hf87     1.0000 0.22658  0.36993  0.74820  Biso   1.000  Hf
  Hf88     1.0000 0.22322  0.86522  0.23245  Biso   1.000  Hf
  Hf89     1.0000 0.23264  0.87099  0.74744  Biso   1.000  Hf
  Hf90     1.0000 0.73753  0.36819  0.24976  Biso   1.000  Hf
  Hf91     1.0000 0.72792  0.37143  0.75233  Biso   1.000  Hf
  Hf92     1.0000 0.72527  0.86773  0.25123  Biso   1.000  Hf
  Hf93     1.0000 0.73239  0.86695  0.75070  Biso   1.000  Hf
