data_image0
_cell_length_a       10.0463
_cell_length_b       10.4118
_cell_length_c       10.073
_cell_angle_alpha    90
_cell_angle_beta     90
_cell_angle_gamma    90

_symmetry_space_group_name_H-M    "P 1"
_symmetry_int_tables_number       1

loop_
  _symmetry_equiv_pos_as_xyz
  'x, y, z'

loop_
  _atom_site_label
  _atom_site_occupancy
  _atom_site_fract_x
  _atom_site_fract_y
  _atom_site_fract_z
  _atom_site_thermal_displace_type
  _atom_site_B_iso_or_equiv
  _atom_site_type_symbol
  La1      1.0000 0.12991  0.00545  0.12447  Biso   1.000  La
  Hf1      1.0000 0.14523  0.01706  0.62594  Biso   1.000  Hf
  Hf2      1.0000 0.13305  0.51660  0.12779  Biso   1.000  Hf
  Hf3      1.0000 0.14223  0.52021  0.62967  Biso   1.000  Hf
  Hf4      1.0000 0.63506  0.01659  0.12486  Biso   1.000  Hf
  Hf5      1.0000 0.64120  0.01606  0.62568  Biso   1.000  Hf
  Hf6      1.0000 0.62875  0.52406  0.12846  Biso   1.000  Hf
  Hf7      1.0000 0.64314  0.51771  0.62577  Biso   1.000  Hf
  Hf8      1.0000 0.15924  0.24178  0.39974  Biso   1.000  Hf
  Hf9      1.0000 0.14224  0.23812  0.87061  Biso   1.000  Hf
  Hf10     1.0000 0.14203  0.72910  0.37914  Biso   1.000  Hf
  Hf11     1.0000 0.14414  0.73396  0.87541  Biso   1.000  Hf
  Hf12     1.0000 0.63352  0.23786  0.37438  Biso   1.000  Hf
  Hf13     1.0000 0.63803  0.23411  0.87107  Biso   1.000  Hf
  Hf14     1.0000 0.63964  0.73382  0.38140  Biso   1.000  Hf
  Hf15     1.0000 0.64190  0.73689  0.87306  Biso   1.000  Hf
  Hf16     1.0000 0.36429  0.26664  0.12695  Biso   1.000  Hf
  Hf17     1.0000 0.37793  0.27052  0.63425  Biso   1.000  Hf
  Hf18     1.0000 0.37012  0.76302  0.12351  Biso   1.000  Hf
  Hf19     1.0000 0.37467  0.76926  0.62527  Biso   1.000  Hf
  Hf20     1.0000 0.83981  0.28138  0.11464  Biso   1.000  Hf
  Hf21     1.0000 0.87345  0.26887  0.62453  Biso   1.000  Hf
  Hf22     1.0000 0.85932  0.76655  0.12198  Biso   1.000  Hf
  Hf23     1.0000 0.87397  0.76600  0.62680  Biso   1.000  Hf
  Hf24     1.0000 0.37333  0.48730  0.37590  Biso   1.000  Hf
  Hf25     1.0000 0.37489  0.48643  0.87967  Biso   1.000  Hf
  Hf26     1.0000 0.37301  0.98419  0.37421  Biso   1.000  Hf
  Hf27     1.0000 0.37679  0.98593  0.87446  Biso   1.000  Hf
  Hf28     1.0000 0.87300  0.48385  0.37485  Biso   1.000  Hf
  Hf29     1.0000 0.87668  0.48799  0.87264  Biso   1.000  Hf
  La2      1.0000 0.87234  0.99101  0.38010  Biso   1.000  La
  Hf30     1.0000 0.87285  0.98476  0.87454  Biso   1.000  Hf
  Hf31     1.0000 0.05139  0.19243  0.67778  Biso   1.000  Hf
  Hf32     1.0000 0.03406  0.68688  0.19561  Biso   1.000  Hf
  Hf33     1.0000 0.04378  0.68283  0.69786  Biso   1.000  Hf
  Hf34     1.0000 0.53400  0.18459  0.19372  Biso   1.000  Hf
  Hf35     1.0000 0.54277  0.18255  0.69719  Biso   1.000  Hf
  Hf36     1.0000 0.53254  0.68148  0.20191  Biso   1.000  Hf
  Hf37     1.0000 0.54528  0.68586  0.69256  Biso   1.000  Hf
  Hf38     1.0000 0.07433  0.06809  0.43264  Biso   1.000  Hf
  Hf39     1.0000 0.04151  0.07617  0.91903  Biso   1.000  Hf
  Hf40     1.0000 0.04619  0.55684  0.44454  Biso   1.000  Hf
  Hf41     1.0000 0.04273  0.56846  0.94760  Biso   1.000  Hf
  Hf42     1.0000 0.54596  0.06322  0.43793  Biso   1.000  Hf
  Hf43     1.0000 0.54439  0.06808  0.94390  Biso   1.000  Hf
  Hf44     1.0000 0.54104  0.56590  0.44740  Biso   1.000  Hf
  Hf45     1.0000 0.54096  0.57232  0.94930  Biso   1.000  Hf
  Hf46     1.0000 0.46181  0.43366  0.19517  Biso   1.000  Hf
  Hf47     1.0000 0.47678  0.43578  0.70081  Biso   1.000  Hf
  Hf48     1.0000 0.45990  0.93855  0.18656  Biso   1.000  Hf
  Hf49     1.0000 0.47221  0.93565  0.69556  Biso   1.000  Hf
  Hf50     1.0000 0.96695  0.41784  0.19370  Biso   1.000  Hf
  Hf51     1.0000 0.97350  0.43550  0.69664  Biso   1.000  Hf
  Hf52     1.0000 0.92523  0.94578  0.15913  Biso   1.000  Hf
  Hf53     1.0000 0.96978  0.93877  0.68454  Biso   1.000  Hf
  Hf54     1.0000 0.46984  0.31995  0.44897  Biso   1.000  Hf
  Hf55     1.0000 0.47325  0.32008  0.94418  Biso   1.000  Hf
  Hf56     1.0000 0.46896  0.81752  0.44457  Biso   1.000  Hf
  Hf57     1.0000 0.47642  0.81823  0.94321  Biso   1.000  Hf
  Hf58     1.0000 0.97104  0.30950  0.43867  Biso   1.000  Hf
  Hf59     1.0000 0.97125  0.31951  0.94766  Biso   1.000  Hf
  Hf60     1.0000 0.97769  0.80323  0.45327  Biso   1.000  Hf
  Hf61     1.0000 0.97479  0.81823  0.93890  Biso   1.000  Hf
  Hf62     1.0000 0.27179  0.13322  0.25973  Biso   1.000  Hf
  Hf63     1.0000 0.27810  0.12048  0.75165  Biso   1.000  Hf
  Hf64     1.0000 0.27010  0.61178  0.24947  Biso   1.000  Hf
  Hf65     1.0000 0.28031  0.62012  0.75122  Biso   1.000  Hf
  Hf66     1.0000 0.76894  0.13958  0.24007  Biso   1.000  Hf
  Hf67     1.0000 0.77984  0.11842  0.74776  Biso   1.000  Hf
  Hf68     1.0000 0.77321  0.61859  0.24954  Biso   1.000  Hf
  Hf69     1.0000 0.77803  0.61810  0.74899  Biso   1.000  Hf
  Hf70     1.0000 0.29471  0.13373  0.50971  Biso   1.000  Hf
  Hf71     1.0000 0.28158  0.14211  0.99466  Biso   1.000  Hf
  Hf72     1.0000 0.27770  0.63294  0.50193  Biso   1.000  Hf
  Hf73     1.0000 0.26785  0.62897  0.00197  Biso   1.000  Hf
  Hf74     1.0000 0.75966  0.14729  0.50810  Biso   1.000  Hf
  Hf75     1.0000 0.77552  0.13689  0.99410  Biso   1.000  Hf
  Hf76     1.0000 0.78028  0.63040  0.49960  Biso   1.000  Hf
  Hf77     1.0000 0.77622  0.63499  0.99754  Biso   1.000  Hf
  Hf78     1.0000 0.24398  0.38677  0.50840  Biso   1.000  Hf
  Hf79     1.0000 0.22747  0.38326  0.00265  Biso   1.000  Hf
  Hf80     1.0000 0.24001  0.88331  0.50154  Biso   1.000  Hf
  Hf81     1.0000 0.24842  0.87467  0.99151  Biso   1.000  Hf
  Hf82     1.0000 0.74077  0.38756  0.49819  Biso   1.000  Hf
  Hf83     1.0000 0.73210  0.38925  0.99699  Biso   1.000  Hf
  Hf84     1.0000 0.72456  0.87060  0.51042  Biso   1.000  Hf
  Hf85     1.0000 0.73354  0.88325  0.99611  Biso   1.000  Hf
  Hf86     1.0000 0.22543  0.36763  0.25377  Biso   1.000  Hf
  Hf87     1.0000 0.23975  0.37336  0.75230  Biso   1.000  Hf
  Hf88     1.0000 0.24430  0.85482  0.25723  Biso   1.000  Hf
  Hf89     1.0000 0.23746  0.86942  0.74799  Biso   1.000  Hf
  Hf90     1.0000 0.72168  0.38000  0.24910  Biso   1.000  Hf
  Hf91     1.0000 0.73930  0.36876  0.74936  Biso   1.000  Hf
  Hf92     1.0000 0.71362  0.86265  0.24614  Biso   1.000  Hf
  Hf93     1.0000 0.74044  0.86991  0.75154  Biso   1.000  Hf
