data_image0
_cell_length_a       10.1949
_cell_length_b       10.3405
_cell_length_c       10.4545
_cell_angle_alpha    90
_cell_angle_beta     80
_cell_angle_gamma    90

_symmetry_space_group_name_H-M    "P 1"
_symmetry_int_tables_number       1

loop_
  _symmetry_equiv_pos_as_xyz
  'x, y, z'

loop_
  _atom_site_label
  _atom_site_occupancy
  _atom_site_fract_x
  _atom_site_fract_y
  _atom_site_fract_z
  _atom_site_thermal_displace_type
  _atom_site_B_iso_or_equiv
  _atom_site_type_symbol
  La1      1.0000 0.12953  0.00183  0.13791  Biso   1.000  La
  Hf1      1.0000 0.12730  0.02168  0.64838  Biso   1.000  Hf
  Hf2      1.0000 0.13822  0.52410  0.14447  Biso   1.000  Hf
  Hf3      1.0000 0.12794  0.52212  0.64665  Biso   1.000  Hf
  Hf4      1.0000 0.63103  0.01665  0.14714  Biso   1.000  Hf
  Hf5      1.0000 0.62984  0.02246  0.64968  Biso   1.000  Hf
  Hf6      1.0000 0.63812  0.51415  0.14726  Biso   1.000  Hf
  Hf7      1.0000 0.63001  0.52023  0.64816  Biso   1.000  Hf
  Hf8      1.0000 0.13006  0.22811  0.39522  Biso   1.000  Hf
  Hf9      1.0000 0.13378  0.23401  0.88932  Biso   1.000  Hf
  Hf10     1.0000 0.13313  0.72769  0.39804  Biso   1.000  Hf
  Hf11     1.0000 0.12699  0.72916  0.89581  Biso   1.000  Hf
  Hf12     1.0000 0.62656  0.23091  0.40158  Biso   1.000  Hf
  Hf13     1.0000 0.62459  0.23023  0.90039  Biso   1.000  Hf
  Hf14     1.0000 0.62796  0.72553  0.39864  Biso   1.000  Hf
  Hf15     1.0000 0.63176  0.72707  0.89746  Biso   1.000  Hf
  Hf16     1.0000 0.35403  0.26851  0.10380  Biso   1.000  Hf
  Hf17     1.0000 0.34980  0.27174  0.60380  Biso   1.000  Hf
  Hf18     1.0000 0.36850  0.76382  0.10214  Biso   1.000  Hf
  Hf19     1.0000 0.35093  0.77083  0.60492  Biso   1.000  Hf
  La2      1.0000 0.87326  0.25821  0.11359  Biso   1.000  La
  Hf20     1.0000 0.85135  0.27210  0.60655  Biso   1.000  Hf
  Hf21     1.0000 0.85606  0.76682  0.10671  Biso   1.000  Hf
  Hf22     1.0000 0.85314  0.77202  0.60558  Biso   1.000  Hf
  Hf23     1.0000 0.35216  0.47793  0.35274  Biso   1.000  Hf
  Hf24     1.0000 0.35163  0.48081  0.85468  Biso   1.000  Hf
  Hf25     1.0000 0.35274  0.97897  0.35673  Biso   1.000  Hf
  Hf26     1.0000 0.35559  0.97536  0.85138  Biso   1.000  Hf
  Hf27     1.0000 0.85671  0.48367  0.35738  Biso   1.000  Hf
  Hf28     1.0000 0.84886  0.47728  0.85625  Biso   1.000  Hf
  Hf29     1.0000 0.84460  0.97932  0.36180  Biso   1.000  Hf
  Hf30     1.0000 0.84924  0.97750  0.85836  Biso   1.000  Hf
  Hf31     1.0000 0.08250  0.20574  0.08103  Biso   1.000  Hf
  Hf32     1.0000 0.02670  0.17300  0.58513  Biso   1.000  Hf
  Hf33     1.0000 0.04465  0.68967  0.08940  Biso   1.000  Hf
  Hf34     1.0000 0.02825  0.67416  0.58531  Biso   1.000  Hf
  Hf35     1.0000 0.53097  0.16787  0.08105  Biso   1.000  Hf
  Hf36     1.0000 0.52268  0.16725  0.58280  Biso   1.000  Hf
  Hf37     1.0000 0.53963  0.66286  0.07776  Biso   1.000  Hf
  Hf38     1.0000 0.52430  0.66601  0.58241  Biso   1.000  Hf
  Hf39     1.0000 0.01457  0.08558  0.33984  Biso   1.000  Hf
  Hf40     1.0000 0.02554  0.07802  0.84134  Biso   1.000  Hf
  Hf41     1.0000 0.03499  0.57897  0.33729  Biso   1.000  Hf
  Hf42     1.0000 0.02524  0.57846  0.83476  Biso   1.000  Hf
  Hf43     1.0000 0.51966  0.08386  0.33289  Biso   1.000  Hf
  Hf44     1.0000 0.52444  0.08198  0.82990  Biso   1.000  Hf
  Hf45     1.0000 0.52591  0.58112  0.32994  Biso   1.000  Hf
  Hf46     1.0000 0.52572  0.58110  0.83166  Biso   1.000  Hf
  Hf47     1.0000 0.46140  0.41420  0.17145  Biso   1.000  Hf
  Hf48     1.0000 0.45648  0.41718  0.67077  Biso   1.000  Hf
  Hf49     1.0000 0.46019  0.91743  0.17007  Biso   1.000  Hf
  Hf50     1.0000 0.45796  0.91601  0.67041  Biso   1.000  Hf
  Hf51     1.0000 0.95657  0.44882  0.16843  Biso   1.000  Hf
  Hf52     1.0000 0.95225  0.42496  0.66605  Biso   1.000  Hf
  Hf53     1.0000 0.91820  0.94123  0.16462  Biso   1.000  Hf
  Hf54     1.0000 0.95366  0.92214  0.67110  Biso   1.000  Hf
  Hf55     1.0000 0.45353  0.33160  0.42225  Biso   1.000  Hf
  Hf56     1.0000 0.45143  0.33219  0.92170  Biso   1.000  Hf
  Hf57     1.0000 0.45628  0.83084  0.42324  Biso   1.000  Hf
  Hf58     1.0000 0.46411  0.83313  0.92135  Biso   1.000  Hf
  Hf59     1.0000 0.95367  0.32948  0.41708  Biso   1.000  Hf
  Hf60     1.0000 0.95643  0.32838  0.90463  Biso   1.000  Hf
  Hf61     1.0000 0.95695  0.82985  0.41597  Biso   1.000  Hf
  Hf62     1.0000 0.95198  0.83053  0.92388  Biso   1.000  Hf
  Hf63     1.0000 0.27415  0.13227  0.24865  Biso   1.000  Hf
  Hf64     1.0000 0.26514  0.12889  0.73801  Biso   1.000  Hf
  Hf65     1.0000 0.27518  0.62428  0.23895  Biso   1.000  Hf
  Hf66     1.0000 0.26523  0.62960  0.74116  Biso   1.000  Hf
  Hf67     1.0000 0.74822  0.12012  0.25932  Biso   1.000  Hf
  Hf68     1.0000 0.76580  0.13011  0.74377  Biso   1.000  Hf
  Hf69     1.0000 0.76817  0.62998  0.24447  Biso   1.000  Hf
  Hf70     1.0000 0.76719  0.62961  0.74211  Biso   1.000  Hf
  Hf71     1.0000 0.26346  0.12062  0.49358  Biso   1.000  Hf
  Hf72     1.0000 0.27587  0.12446  0.97863  Biso   1.000  Hf
  Hf73     1.0000 0.26759  0.62063  0.49183  Biso   1.000  Hf
  Hf74     1.0000 0.26206  0.62093  0.99091  Biso   1.000  Hf
  Hf75     1.0000 0.76386  0.12233  0.49806  Biso   1.000  Hf
  Hf76     1.0000 0.74807  0.10905  0.99142  Biso   1.000  Hf
  Hf77     1.0000 0.76756  0.62243  0.49382  Biso   1.000  Hf
  Hf78     1.0000 0.76593  0.61955  0.99471  Biso   1.000  Hf
  Hf79     1.0000 0.23178  0.38743  0.00244  Biso   1.000  Hf
  Hf80     1.0000 0.21300  0.37982  0.50860  Biso   1.000  Hf
  Hf81     1.0000 0.23109  0.86537  0.99460  Biso   1.000  Hf
  Hf82     1.0000 0.21466  0.88048  0.51227  Biso   1.000  Hf
  Hf83     1.0000 0.72080  0.38209  0.00374  Biso   1.000  Hf
  Hf84     1.0000 0.71518  0.37964  0.51375  Biso   1.000  Hf
  Hf85     1.0000 0.72452  0.87208  0.01049  Biso   1.000  Hf
  Hf86     1.0000 0.71472  0.87870  0.51384  Biso   1.000  Hf
  Hf87     1.0000 0.21606  0.37192  0.25723  Biso   1.000  Hf
  Hf88     1.0000 0.21638  0.37393  0.75601  Biso   1.000  Hf
  Hf89     1.0000 0.23172  0.85704  0.26404  Biso   1.000  Hf
  Hf90     1.0000 0.21348  0.87098  0.75785  Biso   1.000  Hf
  Hf91     1.0000 0.71295  0.37671  0.27134  Biso   1.000  Hf
  Hf92     1.0000 0.71371  0.37064  0.76030  Biso   1.000  Hf
  Hf93     1.0000 0.70717  0.86633  0.26592  Biso   1.000  Hf
  Hf94     1.0000 0.71621  0.87078  0.76148  Biso   1.000  Hf
