data_image0
_cell_length_a       10.1808
_cell_length_b       10.3799
_cell_length_c       10.4174
_cell_angle_alpha    90
_cell_angle_beta     80
_cell_angle_gamma    90

_symmetry_space_group_name_H-M    "P 1"
_symmetry_int_tables_number       1

loop_
  _symmetry_equiv_pos_as_xyz
  'x, y, z'

loop_
  _atom_site_label
  _atom_site_occupancy
  _atom_site_fract_x
  _atom_site_fract_y
  _atom_site_fract_z
  _atom_site_thermal_displace_type
  _atom_site_B_iso_or_equiv
  _atom_site_type_symbol
  La1      1.0000 0.11745  0.00243  0.13437  Biso   1.000  La
  Hf1      1.0000 0.12546  0.01397  0.64869  Biso   1.000  Hf
  Hf2      1.0000 0.13793  0.52107  0.14254  Biso   1.000  Hf
  Hf3      1.0000 0.12553  0.51305  0.64533  Biso   1.000  Hf
  Hf4      1.0000 0.63719  0.01902  0.14850  Biso   1.000  Hf
  Hf5      1.0000 0.62366  0.01416  0.64995  Biso   1.000  Hf
  Hf6      1.0000 0.64233  0.52059  0.14525  Biso   1.000  Hf
  Hf7      1.0000 0.62419  0.51358  0.64923  Biso   1.000  Hf
  La2      1.0000 0.12114  0.22999  0.38697  Biso   1.000  La
  Hf8      1.0000 0.12073  0.22323  0.89712  Biso   1.000  Hf
  Hf9      1.0000 0.13119  0.72240  0.39746  Biso   1.000  Hf
  Hf10     1.0000 0.12327  0.71901  0.89766  Biso   1.000  Hf
  Hf11     1.0000 0.63046  0.22774  0.39897  Biso   1.000  Hf
  Hf12     1.0000 0.62933  0.21733  0.89792  Biso   1.000  Hf
  Hf13     1.0000 0.63451  0.72050  0.40113  Biso   1.000  Hf
  Hf14     1.0000 0.62464  0.72012  0.89676  Biso   1.000  Hf
  Hf15     1.0000 0.37613  0.28522  0.08020  Biso   1.000  Hf
  Hf16     1.0000 0.34867  0.26271  0.60231  Biso   1.000  Hf
  Hf17     1.0000 0.36739  0.76753  0.10300  Biso   1.000  Hf
  Hf18     1.0000 0.34780  0.76124  0.61014  Biso   1.000  Hf
  Hf19     1.0000 0.85983  0.27282  0.10610  Biso   1.000  Hf
  Hf20     1.0000 0.84456  0.26261  0.61157  Biso   1.000  Hf
  Hf21     1.0000 0.85422  0.76539  0.10528  Biso   1.000  Hf
  Hf22     1.0000 0.85199  0.76316  0.60775  Biso   1.000  Hf
  Hf23     1.0000 0.35972  0.47683  0.35067  Biso   1.000  Hf
  Hf24     1.0000 0.34423  0.47374  0.84931  Biso   1.000  Hf
  Hf25     1.0000 0.36618  0.95974  0.36515  Biso   1.000  Hf
  Hf26     1.0000 0.35002  0.97032  0.85583  Biso   1.000  Hf
  Hf27     1.0000 0.85335  0.47773  0.35697  Biso   1.000  Hf
  Hf28     1.0000 0.84762  0.46948  0.85513  Biso   1.000  Hf
  Hf29     1.0000 0.84506  0.97134  0.36150  Biso   1.000  Hf
  Hf30     1.0000 0.84904  0.96730  0.85995  Biso   1.000  Hf
  Hf31     1.0000 0.04169  0.19884  0.08755  Biso   1.000  Hf
  Hf32     1.0000 0.01885  0.16636  0.60355  Biso   1.000  Hf
  Hf33     1.0000 0.04108  0.68285  0.09011  Biso   1.000  Hf
  Hf34     1.0000 0.02815  0.66642  0.58565  Biso   1.000  Hf
  Hf35     1.0000 0.53568  0.17052  0.08008  Biso   1.000  Hf
  Hf36     1.0000 0.52310  0.16352  0.58343  Biso   1.000  Hf
  Hf37     1.0000 0.54274  0.67334  0.08241  Biso   1.000  Hf
  Hf38     1.0000 0.52489  0.66236  0.58576  Biso   1.000  Hf
  Hf39     1.0000 0.02092  0.04672  0.34710  Biso   1.000  Hf
  Hf40     1.0000 0.02591  0.06071  0.84792  Biso   1.000  Hf
  Hf41     1.0000 0.03923  0.56159  0.33771  Biso   1.000  Hf
  Hf42     1.0000 0.02363  0.56540  0.83748  Biso   1.000  Hf
  Hf43     1.0000 0.52795  0.07566  0.33310  Biso   1.000  Hf
  Hf44     1.0000 0.52110  0.07380  0.83344  Biso   1.000  Hf
  Hf45     1.0000 0.53347  0.57542  0.33266  Biso   1.000  Hf
  Hf46     1.0000 0.51945  0.57275  0.83377  Biso   1.000  Hf
  Hf47     1.0000 0.47191  0.42417  0.16374  Biso   1.000  Hf
  Hf48     1.0000 0.44886  0.41299  0.66842  Biso   1.000  Hf
  Hf49     1.0000 0.45697  0.92676  0.17003  Biso   1.000  Hf
  Hf50     1.0000 0.45141  0.91262  0.67156  Biso   1.000  Hf
  Hf51     1.0000 0.95759  0.42961  0.16626  Biso   1.000  Hf
  Hf52     1.0000 0.94843  0.41763  0.66586  Biso   1.000  Hf
  Hf53     1.0000 0.91626  0.93141  0.16528  Biso   1.000  Hf
  Hf54     1.0000 0.95250  0.91283  0.67294  Biso   1.000  Hf
  Hf55     1.0000 0.45355  0.32163  0.41450  Biso   1.000  Hf
  Hf56     1.0000 0.45696  0.32902  0.91394  Biso   1.000  Hf
  Hf57     1.0000 0.45817  0.81857  0.42764  Biso   1.000  Hf
  Hf58     1.0000 0.45695  0.82422  0.92165  Biso   1.000  Hf
  Hf59     1.0000 0.92510  0.31825  0.42412  Biso   1.000  Hf
  Hf60     1.0000 0.94187  0.31458  0.91461  Biso   1.000  Hf
  Hf61     1.0000 0.94852  0.81121  0.41487  Biso   1.000  Hf
  Hf62     1.0000 0.94734  0.81589  0.92407  Biso   1.000  Hf
  Hf63     1.0000 0.26066  0.12138  0.74255  Biso   1.000  Hf
  Hf64     1.0000 0.27342  0.62471  0.23856  Biso   1.000  Hf
  Hf65     1.0000 0.26087  0.61999  0.74221  Biso   1.000  Hf
  Hf66     1.0000 0.76634  0.13146  0.24608  Biso   1.000  Hf
  Hf67     1.0000 0.76161  0.11852  0.74741  Biso   1.000  Hf
  Hf68     1.0000 0.77421  0.62776  0.24452  Biso   1.000  Hf
  Hf69     1.0000 0.76315  0.62071  0.74329  Biso   1.000  Hf
  Hf70     1.0000 0.27215  0.10568  0.48965  Biso   1.000  Hf
  Hf71     1.0000 0.26707  0.11856  0.99249  Biso   1.000  Hf
  Hf72     1.0000 0.26888  0.61753  0.49019  Biso   1.000  Hf
  Hf73     1.0000 0.25847  0.60939  0.99251  Biso   1.000  Hf
  Hf74     1.0000 0.76029  0.11294  0.49797  Biso   1.000  Hf
  Hf75     1.0000 0.75801  0.10929  0.99710  Biso   1.000  Hf
  Hf76     1.0000 0.76696  0.61288  0.49560  Biso   1.000  Hf
  Hf77     1.0000 0.75957  0.60849  0.99291  Biso   1.000  Hf
  Hf78     1.0000 0.20827  0.37491  0.99950  Biso   1.000  Hf
  Hf79     1.0000 0.22278  0.38309  0.50931  Biso   1.000  Hf
  Hf80     1.0000 0.22371  0.85506  0.99794  Biso   1.000  Hf
  Hf81     1.0000 0.21417  0.86880  0.51460  Biso   1.000  Hf
  Hf82     1.0000 0.72731  0.38055  0.00842  Biso   1.000  Hf
  Hf83     1.0000 0.70085  0.37453  0.51538  Biso   1.000  Hf
  Hf84     1.0000 0.72530  0.87910  0.00849  Biso   1.000  Hf
  Hf85     1.0000 0.71331  0.87071  0.51572  Biso   1.000  Hf
  Hf86     1.0000 0.24025  0.36852  0.23579  Biso   1.000  Hf
  Hf87     1.0000 0.20826  0.36115  0.75651  Biso   1.000  Hf
  Hf88     1.0000 0.23295  0.85988  0.26633  Biso   1.000  Hf
  Hf89     1.0000 0.21081  0.86094  0.76106  Biso   1.000  Hf
  Hf90     1.0000 0.72027  0.37123  0.26045  Biso   1.000  Hf
  Hf91     1.0000 0.71011  0.36086  0.76280  Biso   1.000  Hf
  Hf92     1.0000 0.70067  0.86260  0.26587  Biso   1.000  Hf
  Hf93     1.0000 0.71325  0.86209  0.76233  Biso   1.000  Hf
