data_image0
_cell_length_a       10.0401
_cell_length_b       10.4114
_cell_length_c       10.0698
_cell_angle_alpha    90
_cell_angle_beta     90
_cell_angle_gamma    90

_symmetry_space_group_name_H-M    "P 1"
_symmetry_int_tables_number       1

loop_
  _symmetry_equiv_pos_as_xyz
  'x, y, z'

loop_
  _atom_site_label
  _atom_site_occupancy
  _atom_site_fract_x
  _atom_site_fract_y
  _atom_site_fract_z
  _atom_site_thermal_displace_type
  _atom_site_B_iso_or_equiv
  _atom_site_type_symbol
  La1      1.0000 0.12419  0.00868  0.12552  Biso   1.000  La
  Hf1      1.0000 0.14127  0.01776  0.63022  Biso   1.000  Hf
  Hf2      1.0000 0.13170  0.51805  0.12594  Biso   1.000  Hf
  Hf3      1.0000 0.13619  0.51748  0.62696  Biso   1.000  Hf
  Hf4      1.0000 0.63406  0.01425  0.12198  Biso   1.000  Hf
  Hf5      1.0000 0.63714  0.01725  0.62650  Biso   1.000  Hf
  Hf6      1.0000 0.63223  0.51646  0.12731  Biso   1.000  Hf
  Hf7      1.0000 0.63700  0.51757  0.62639  Biso   1.000  Hf
  Hf8      1.0000 0.14019  0.23869  0.38185  Biso   1.000  Hf
  Hf9      1.0000 0.13614  0.23834  0.87054  Biso   1.000  Hf
  Hf10     1.0000 0.13921  0.73108  0.37976  Biso   1.000  Hf
  Hf11     1.0000 0.13877  0.73312  0.87423  Biso   1.000  Hf
  Hf12     1.0000 0.62989  0.23872  0.37610  Biso   1.000  Hf
  Hf13     1.0000 0.63635  0.23538  0.87534  Biso   1.000  Hf
  Hf14     1.0000 0.63499  0.73338  0.38052  Biso   1.000  Hf
  Hf15     1.0000 0.63508  0.73447  0.87243  Biso   1.000  Hf
  Hf16     1.0000 0.36173  0.26792  0.12551  Biso   1.000  Hf
  Hf17     1.0000 0.37048  0.26854  0.62953  Biso   1.000  Hf
  Hf18     1.0000 0.36729  0.76336  0.12515  Biso   1.000  Hf
  Hf19     1.0000 0.36856  0.76843  0.62563  Biso   1.000  Hf
  Hf20     1.0000 0.86080  0.26987  0.12655  Biso   1.000  Hf
  Hf21     1.0000 0.86768  0.27036  0.62765  Biso   1.000  Hf
  Hf22     1.0000 0.85874  0.76025  0.11943  Biso   1.000  Hf
  Hf23     1.0000 0.86869  0.76728  0.62576  Biso   1.000  Hf
  Hf24     1.0000 0.36667  0.48521  0.37628  Biso   1.000  Hf
  Hf25     1.0000 0.36869  0.48563  0.87748  Biso   1.000  Hf
  Hf26     1.0000 0.36678  0.98487  0.37634  Biso   1.000  Hf
  Hf27     1.0000 0.36878  0.98517  0.87516  Biso   1.000  Hf
  Hf28     1.0000 0.86696  0.48521  0.37620  Biso   1.000  Hf
  Hf29     1.0000 0.86827  0.48472  0.87665  Biso   1.000  Hf
  La2      1.0000 0.87148  0.99681  0.37546  Biso   1.000  La
  Hf30     1.0000 0.86480  0.98371  0.87667  Biso   1.000  Hf
  Hf31     1.0000 0.01673  0.19046  0.21867  Biso   1.000  Hf
  Hf32     1.0000 0.04340  0.19099  0.68295  Biso   1.000  Hf
  Hf33     1.0000 0.03579  0.69640  0.19337  Biso   1.000  Hf
  Hf34     1.0000 0.03931  0.68386  0.69421  Biso   1.000  Hf
  Hf35     1.0000 0.52738  0.18205  0.19586  Biso   1.000  Hf
  Hf36     1.0000 0.53764  0.18445  0.69795  Biso   1.000  Hf
  Hf37     1.0000 0.53380  0.68141  0.19843  Biso   1.000  Hf
  Hf38     1.0000 0.53849  0.68512  0.69314  Biso   1.000  Hf
  Hf39     1.0000 0.07205  0.06208  0.44188  Biso   1.000  Hf
  Hf40     1.0000 0.03940  0.07201  0.91420  Biso   1.000  Hf
  Hf41     1.0000 0.04060  0.56094  0.44363  Biso   1.000  Hf
  Hf42     1.0000 0.03589  0.56980  0.94680  Biso   1.000  Hf
  Hf43     1.0000 0.53884  0.06572  0.44419  Biso   1.000  Hf
  Hf44     1.0000 0.53849  0.06883  0.94425  Biso   1.000  Hf
  Hf45     1.0000 0.53600  0.56650  0.44695  Biso   1.000  Hf
  Hf46     1.0000 0.53548  0.56954  0.94792  Biso   1.000  Hf
  Hf47     1.0000 0.46453  0.43276  0.19752  Biso   1.000  Hf
  Hf48     1.0000 0.46930  0.43558  0.69843  Biso   1.000  Hf
  Hf49     1.0000 0.46188  0.93493  0.19137  Biso   1.000  Hf
  Hf50     1.0000 0.46665  0.93478  0.69670  Biso   1.000  Hf
  Hf51     1.0000 0.96044  0.43996  0.19272  Biso   1.000  Hf
  Hf52     1.0000 0.96795  0.43601  0.69898  Biso   1.000  Hf
  Hf53     1.0000 0.91100  0.94800  0.14186  Biso   1.000  Hf
  Hf54     1.0000 0.96310  0.93810  0.68549  Biso   1.000  Hf
  Hf55     1.0000 0.46414  0.31974  0.44816  Biso   1.000  Hf
  Hf56     1.0000 0.46782  0.31999  0.94598  Biso   1.000  Hf
  Hf57     1.0000 0.46528  0.81708  0.44601  Biso   1.000  Hf
  Hf58     1.0000 0.46993  0.81816  0.94439  Biso   1.000  Hf
  Hf59     1.0000 0.96447  0.31614  0.44794  Biso   1.000  Hf
  Hf60     1.0000 0.96727  0.31864  0.94725  Biso   1.000  Hf
  Hf61     1.0000 0.97130  0.80515  0.44924  Biso   1.000  Hf
  Hf62     1.0000 0.96669  0.81530  0.93679  Biso   1.000  Hf
  Hf63     1.0000 0.27756  0.12887  0.25681  Biso   1.000  Hf
  Hf64     1.0000 0.27556  0.12067  0.75089  Biso   1.000  Hf
  Hf65     1.0000 0.26828  0.61404  0.24915  Biso   1.000  Hf
  Hf66     1.0000 0.27319  0.61887  0.75017  Biso   1.000  Hf
  Hf67     1.0000 0.75175  0.13144  0.24143  Biso   1.000  Hf
  Hf68     1.0000 0.77418  0.11861  0.75021  Biso   1.000  Hf
  Hf69     1.0000 0.76868  0.61735  0.25000  Biso   1.000  Hf
  Hf70     1.0000 0.77285  0.61778  0.74931  Biso   1.000  Hf
  Hf71     1.0000 0.28424  0.13376  0.50529  Biso   1.000  Hf
  Hf72     1.0000 0.27506  0.14019  0.99421  Biso   1.000  Hf
  Hf73     1.0000 0.27395  0.63174  0.50144  Biso   1.000  Hf
  Hf74     1.0000 0.26963  0.62907  0.00037  Biso   1.000  Hf
  Hf75     1.0000 0.75806  0.14698  0.50763  Biso   1.000  Hf
  Hf76     1.0000 0.77267  0.13557  0.99659  Biso   1.000  Hf
  Hf77     1.0000 0.77391  0.63157  0.49979  Biso   1.000  Hf
  Hf78     1.0000 0.76944  0.63221  0.99716  Biso   1.000  Hf
  Hf79     1.0000 0.23331  0.38433  0.50181  Biso   1.000  Hf
  Hf80     1.0000 0.22745  0.38461  0.00008  Biso   1.000  Hf
  Hf81     1.0000 0.23460  0.88201  0.50375  Biso   1.000  Hf
  Hf82     1.0000 0.24129  0.87338  0.99212  Biso   1.000  Hf
  Hf83     1.0000 0.73181  0.38760  0.50010  Biso   1.000  Hf
  Hf84     1.0000 0.73027  0.38588  0.99977  Biso   1.000  Hf
  Hf85     1.0000 0.72120  0.87437  0.50693  Biso   1.000  Hf
  Hf86     1.0000 0.72266  0.87910  0.99392  Biso   1.000  Hf
  Hf87     1.0000 0.22700  0.37054  0.24955  Biso   1.000  Hf
  Hf88     1.0000 0.23413  0.37143  0.74953  Biso   1.000  Hf
  Hf89     1.0000 0.24225  0.85728  0.25864  Biso   1.000  Hf
  Hf90     1.0000 0.23235  0.86900  0.74894  Biso   1.000  Hf
  Hf91     1.0000 0.72770  0.37237  0.25135  Biso   1.000  Hf
  Hf92     1.0000 0.73267  0.36947  0.75092  Biso   1.000  Hf
  Hf93     1.0000 0.71791  0.86080  0.24367  Biso   1.000  Hf
  Hf94     1.0000 0.73360  0.86938  0.75064  Biso   1.000  Hf
