data_image0
_cell_length_a       10.0554
_cell_length_b       10.4077
_cell_length_c       10.0968
_cell_angle_alpha    90
_cell_angle_beta     90
_cell_angle_gamma    90

_symmetry_space_group_name_H-M    "P 1"
_symmetry_int_tables_number       1

loop_
  _symmetry_equiv_pos_as_xyz
  'x, y, z'

loop_
  _atom_site_label
  _atom_site_occupancy
  _atom_site_fract_x
  _atom_site_fract_y
  _atom_site_fract_z
  _atom_site_thermal_displace_type
  _atom_site_B_iso_or_equiv
  _atom_site_type_symbol
  La1      1.0000 0.12209  0.00617  0.12067  Biso   1.000  La
  Hf1      1.0000 0.12948  0.01331  0.62500  Biso   1.000  Hf
  Hf2      1.0000 0.13296  0.51486  0.12575  Biso   1.000  Hf
  Hf3      1.0000 0.12890  0.51288  0.62641  Biso   1.000  Hf
  Hf4      1.0000 0.63327  0.01512  0.12502  Biso   1.000  Hf
  La2      1.0000 0.61829  0.00434  0.62063  Biso   1.000  La
  Hf5      1.0000 0.63270  0.51471  0.12644  Biso   1.000  Hf
  Hf6      1.0000 0.62915  0.51303  0.62573  Biso   1.000  Hf
  Hf7      1.0000 0.13375  0.23316  0.37732  Biso   1.000  Hf
  Hf8      1.0000 0.12702  0.23323  0.86931  Biso   1.000  Hf
  Hf9      1.0000 0.13465  0.72986  0.37591  Biso   1.000  Hf
  Hf10     1.0000 0.12781  0.72862  0.87875  Biso   1.000  Hf
  Hf11     1.0000 0.63083  0.23506  0.36934  Biso   1.000  Hf
  Hf12     1.0000 0.62993  0.23134  0.87731  Biso   1.000  Hf
  Hf13     1.0000 0.63163  0.73045  0.37877  Biso   1.000  Hf
  Hf14     1.0000 0.63084  0.72804  0.87589  Biso   1.000  Hf
  Hf15     1.0000 0.36386  0.26646  0.12563  Biso   1.000  Hf
  Hf16     1.0000 0.35851  0.26531  0.62569  Biso   1.000  Hf
  Hf17     1.0000 0.37049  0.76081  0.12387  Biso   1.000  Hf
  Hf18     1.0000 0.35610  0.76197  0.62790  Biso   1.000  Hf
  Hf19     1.0000 0.86233  0.26714  0.12571  Biso   1.000  Hf
  Hf20     1.0000 0.86005  0.26464  0.62561  Biso   1.000  Hf
  Hf21     1.0000 0.85990  0.76379  0.12792  Biso   1.000  Hf
  Hf22     1.0000 0.86670  0.75899  0.62384  Biso   1.000  Hf
  Hf23     1.0000 0.36332  0.48087  0.37624  Biso   1.000  Hf
  Hf24     1.0000 0.35983  0.48002  0.87727  Biso   1.000  Hf
  Hf25     1.0000 0.36197  0.98233  0.37058  Biso   1.000  Hf
  Hf26     1.0000 0.35934  0.98235  0.87997  Biso   1.000  Hf
  Hf27     1.0000 0.86364  0.48185  0.37729  Biso   1.000  Hf
  Hf28     1.0000 0.85951  0.47904  0.87621  Biso   1.000  Hf
  Hf29     1.0000 0.86315  0.98419  0.37997  Biso   1.000  Hf
  Hf30     1.0000 0.85814  0.98050  0.87056  Biso   1.000  Hf
  Hf31     1.0000 0.02597  0.19530  0.20564  Biso   1.000  Hf
  Hf32     1.0000 0.03614  0.18691  0.68124  Biso   1.000  Hf
  Hf33     1.0000 0.03477  0.68474  0.19614  Biso   1.000  Hf
  Hf34     1.0000 0.03089  0.67768  0.69961  Biso   1.000  Hf
  Hf35     1.0000 0.53994  0.18875  0.18126  Biso   1.000  Hf
  Hf36     1.0000 0.52213  0.19346  0.70565  Biso   1.000  Hf
  Hf37     1.0000 0.53470  0.67951  0.19964  Biso   1.000  Hf
  Hf38     1.0000 0.53095  0.68290  0.69613  Biso   1.000  Hf
  Hf39     1.0000 0.03613  0.06341  0.43948  Biso   1.000  Hf
  Hf40     1.0000 0.02657  0.06993  0.91541  Biso   1.000  Hf
  Hf41     1.0000 0.03069  0.56578  0.44917  Biso   1.000  Hf
  Hf42     1.0000 0.02620  0.56489  0.94706  Biso   1.000  Hf
  Hf43     1.0000 0.53041  0.07174  0.41541  Biso   1.000  Hf
  Hf44     1.0000 0.53229  0.06158  0.93950  Biso   1.000  Hf
  Hf45     1.0000 0.53002  0.56671  0.44706  Biso   1.000  Hf
  Hf46     1.0000 0.52687  0.56394  0.94916  Biso   1.000  Hf
  Hf47     1.0000 0.46551  0.43200  0.19914  Biso   1.000  Hf
  Hf48     1.0000 0.45809  0.43557  0.69584  Biso   1.000  Hf
  Hf49     1.0000 0.46009  0.93489  0.18807  Biso   1.000  Hf
  Hf50     1.0000 0.43536  0.92388  0.70724  Biso   1.000  Hf
  Hf51     1.0000 0.96190  0.43740  0.19585  Biso   1.000  Hf
  Hf52     1.0000 0.96170  0.43018  0.69909  Biso   1.000  Hf
  Hf53     1.0000 0.93910  0.92575  0.20720  Biso   1.000  Hf
  Hf54     1.0000 0.95628  0.93308  0.68804  Biso   1.000  Hf
  Hf55     1.0000 0.46257  0.31634  0.44798  Biso   1.000  Hf
  Hf56     1.0000 0.46033  0.31740  0.94681  Biso   1.000  Hf
  Hf57     1.0000 0.47206  0.82398  0.45867  Biso   1.000  Hf
  Hf58     1.0000 0.46803  0.81388  0.94964  Biso   1.000  Hf
  Hf59     1.0000 0.96413  0.31924  0.44682  Biso   1.000  Hf
  Hf60     1.0000 0.95877  0.31452  0.94795  Biso   1.000  Hf
  Hf61     1.0000 0.97184  0.81573  0.44962  Biso   1.000  Hf
  Hf62     1.0000 0.96824  0.82214  0.95864  Biso   1.000  Hf
  Hf63     1.0000 0.27796  0.12677  0.25466  Biso   1.000  Hf
  Hf64     1.0000 0.26285  0.11434  0.74893  Biso   1.000  Hf
  Hf65     1.0000 0.26867  0.61084  0.24846  Biso   1.000  Hf
  Hf66     1.0000 0.26465  0.61437  0.75022  Biso   1.000  Hf
  Hf67     1.0000 0.76667  0.11619  0.24896  Biso   1.000  Hf
  Hf68     1.0000 0.77415  0.12492  0.75464  Biso   1.000  Hf
  Hf69     1.0000 0.76848  0.61619  0.25024  Biso   1.000  Hf
  Hf70     1.0000 0.76486  0.60900  0.74844  Biso   1.000  Hf
  Hf71     1.0000 0.26884  0.12887  0.50137  Biso   1.000  Hf
  Hf72     1.0000 0.26679  0.13642  0.99221  Biso   1.000  Hf
  Hf73     1.0000 0.26649  0.62891  0.49895  Biso   1.000  Hf
  Hf74     1.0000 0.26324  0.62508  0.99994  Biso   1.000  Hf
  Hf75     1.0000 0.77062  0.13825  0.49223  Biso   1.000  Hf
  Hf76     1.0000 0.77264  0.13070  0.00139  Biso   1.000  Hf
  Hf77     1.0000 0.76707  0.62692  0.49992  Biso   1.000  Hf
  Hf78     1.0000 0.76267  0.62710  0.99893  Biso   1.000  Hf
  Hf79     1.0000 0.22647  0.38186  0.49925  Biso   1.000  Hf
  Hf80     1.0000 0.22278  0.38038  0.99894  Biso   1.000  Hf
  Hf81     1.0000 0.22930  0.87962  0.49985  Biso   1.000  Hf
  Hf82     1.0000 0.23727  0.86622  0.99137  Biso   1.000  Hf
  Hf83     1.0000 0.72658  0.38222  0.49895  Biso   1.000  Hf
  Hf84     1.0000 0.72266  0.38003  0.99925  Biso   1.000  Hf
  Hf85     1.0000 0.74110  0.86806  0.49138  Biso   1.000  Hf
  Hf86     1.0000 0.72548  0.87780  0.99982  Biso   1.000  Hf
  Hf87     1.0000 0.22694  0.36793  0.24942  Biso   1.000  Hf
  Hf88     1.0000 0.22581  0.36688  0.74843  Biso   1.000  Hf
  Hf89     1.0000 0.24308  0.85248  0.25569  Biso   1.000  Hf
  Hf90     1.0000 0.21033  0.86240  0.74763  Biso   1.000  Hf
  Hf91     1.0000 0.72963  0.36871  0.24846  Biso   1.000  Hf
  Hf92     1.0000 0.72313  0.36609  0.74941  Biso   1.000  Hf
  Hf93     1.0000 0.71413  0.86423  0.24765  Biso   1.000  Hf
  Hf94     1.0000 0.73925  0.85065  0.75568  Biso   1.000  Hf
