data_image0
_cell_length_a       10.2191
_cell_length_b       10.3005
_cell_length_c       10.5375
_cell_angle_alpha    90
_cell_angle_beta     80
_cell_angle_gamma    90

_symmetry_space_group_name_H-M    "P 1"
_symmetry_int_tables_number       1

loop_
  _symmetry_equiv_pos_as_xyz
  'x, y, z'

loop_
  _atom_site_label
  _atom_site_occupancy
  _atom_site_fract_x
  _atom_site_fract_y
  _atom_site_fract_z
  _atom_site_thermal_displace_type
  _atom_site_B_iso_or_equiv
  _atom_site_type_symbol
  La1      1.0000 0.12567  0.01942  0.13593  Biso   1.000  La
  Hf1      1.0000 0.12304  0.02157  0.64451  Biso   1.000  Hf
  Hf2      1.0000 0.12883  0.51864  0.14342  Biso   1.000  Hf
  Hf3      1.0000 0.12678  0.52503  0.64186  Biso   1.000  Hf
  Hf4      1.0000 0.62986  0.01785  0.14853  Biso   1.000  Hf
  Hf5      1.0000 0.62656  0.02420  0.65094  Biso   1.000  Hf
  Hf6      1.0000 0.62468  0.52648  0.15164  Biso   1.000  Hf
  Hf7      1.0000 0.62189  0.52318  0.64905  Biso   1.000  Hf
  Hf8      1.0000 0.12527  0.23000  0.39702  Biso   1.000  Hf
  Hf9      1.0000 0.14432  0.22950  0.87898  Biso   1.000  Hf
  Hf10     1.0000 0.12413  0.72968  0.39594  Biso   1.000  Hf
  Hf11     1.0000 0.11833  0.73607  0.89684  Biso   1.000  Hf
  Hf12     1.0000 0.62247  0.22907  0.40356  Biso   1.000  Hf
  Hf13     1.0000 0.61298  0.23225  0.89966  Biso   1.000  Hf
  Hf14     1.0000 0.62242  0.73010  0.40012  Biso   1.000  Hf
  Hf15     1.0000 0.61320  0.73584  0.89918  Biso   1.000  Hf
  Hf16     1.0000 0.35943  0.27220  0.10441  Biso   1.000  Hf
  Hf17     1.0000 0.34995  0.27539  0.60050  Biso   1.000  Hf
  Hf18     1.0000 0.35594  0.76861  0.10486  Biso   1.000  Hf
  Hf19     1.0000 0.34673  0.77434  0.60392  Biso   1.000  Hf
  Hf20     1.0000 0.82812  0.27494  0.12509  Biso   1.000  Hf
  Hf21     1.0000 0.84717  0.27446  0.60705  Biso   1.000  Hf
  Hf22     1.0000 0.85080  0.76838  0.10720  Biso   1.000  Hf
  Hf23     1.0000 0.84500  0.77477  0.60810  Biso   1.000  Hf
  Hf24     1.0000 0.34588  0.48028  0.35312  Biso   1.000  Hf
  Hf25     1.0000 0.34257  0.48663  0.85553  Biso   1.000  Hf
  Hf26     1.0000 0.34725  0.98125  0.35500  Biso   1.000  Hf
  Hf27     1.0000 0.34445  0.97795  0.85240  Biso   1.000  Hf
  Hf28     1.0000 0.84940  0.48289  0.35955  Biso   1.000  Hf
  La2      1.0000 0.84678  0.48505  0.86814  Biso   1.000  La
  Hf29     1.0000 0.84235  0.97941  0.36217  Biso   1.000  Hf
  Hf30     1.0000 0.84031  0.98578  0.86062  Biso   1.000  Hf
  Hf31     1.0000 0.01916  0.20446  0.04618  Biso   1.000  Hf
  Hf32     1.0000 0.01940  0.16507  0.57836  Biso   1.000  Hf
  Hf33     1.0000 0.02720  0.66502  0.07372  Biso   1.000  Hf
  Hf34     1.0000 0.01649  0.66585  0.57793  Biso   1.000  Hf
  Hf35     1.0000 0.53061  0.16572  0.07833  Biso   1.000  Hf
  Hf36     1.0000 0.51909  0.16776  0.58109  Biso   1.000  Hf
  Hf37     1.0000 0.52329  0.66471  0.07709  Biso   1.000  Hf
  Hf38     1.0000 0.51849  0.66795  0.57927  Biso   1.000  Hf
  Hf39     1.0000 0.00968  0.09720  0.33220  Biso   1.000  Hf
  Hf40     1.0000 0.02486  0.08484  0.83110  Biso   1.000  Hf
  Hf41     1.0000 0.02208  0.58686  0.32470  Biso   1.000  Hf
  Hf42     1.0000 0.03901  0.58612  0.82206  Biso   1.000  Hf
  Hf43     1.0000 0.52324  0.08469  0.33028  Biso   1.000  Hf
  Hf44     1.0000 0.51718  0.08717  0.82883  Biso   1.000  Hf
  Hf45     1.0000 0.51787  0.58779  0.32880  Biso   1.000  Hf
  Hf46     1.0000 0.51520  0.58596  0.83205  Biso   1.000  Hf
  Hf47     1.0000 0.45525  0.41730  0.17521  Biso   1.000  Hf
  Hf48     1.0000 0.44921  0.41977  0.67378  Biso   1.000  Hf
  Hf49     1.0000 0.45393  0.91849  0.17200  Biso   1.000  Hf
  Hf50     1.0000 0.45126  0.91666  0.67524  Biso   1.000  Hf
  Hf51     1.0000 0.94758  0.41963  0.17295  Biso   1.000  Hf
  Hf52     1.0000 0.96276  0.40726  0.67185  Biso   1.000  Hf
  Hf53     1.0000 0.93013  0.91832  0.18197  Biso   1.000  Hf
  Hf54     1.0000 0.94705  0.91760  0.67934  Biso   1.000  Hf
  Hf55     1.0000 0.45334  0.33670  0.42298  Biso   1.000  Hf
  Hf56     1.0000 0.44179  0.33875  0.92575  Biso   1.000  Hf
  Hf57     1.0000 0.45067  0.83649  0.42476  Biso   1.000  Hf
  Hf58     1.0000 0.44585  0.83974  0.92693  Biso   1.000  Hf
  Hf59     1.0000 0.95302  0.33940  0.42572  Biso   1.000  Hf
  Hf60     1.0000 0.95326  0.30001  0.95787  Biso   1.000  Hf
  Hf61     1.0000 0.95265  0.83861  0.42610  Biso   1.000  Hf
  Hf62     1.0000 0.94194  0.83940  0.93030  Biso   1.000  Hf
  Hf63     1.0000 0.27257  0.13733  0.24545  Biso   1.000  Hf
  Hf64     1.0000 0.26552  0.12899  0.73241  Biso   1.000  Hf
  Hf65     1.0000 0.26302  0.62574  0.23747  Biso   1.000  Hf
  Hf66     1.0000 0.26893  0.63195  0.73610  Biso   1.000  Hf
  Hf67     1.0000 0.76037  0.13029  0.24881  Biso   1.000  Hf
  Hf68     1.0000 0.76229  0.13099  0.74608  Biso   1.000  Hf
  Hf69     1.0000 0.76246  0.63056  0.24583  Biso   1.000  Hf
  Hf70     1.0000 0.75007  0.63980  0.74149  Biso   1.000  Hf
  Hf71     1.0000 0.26105  0.12250  0.49033  Biso   1.000  Hf
  Hf72     1.0000 0.26273  0.13069  0.97884  Biso   1.000  Hf
  Hf73     1.0000 0.26044  0.62439  0.48763  Biso   1.000  Hf
  Hf74     1.0000 0.24621  0.62293  0.99273  Biso   1.000  Hf
  Hf75     1.0000 0.75940  0.12325  0.49699  Biso   1.000  Hf
  Hf76     1.0000 0.74811  0.12734  0.99921  Biso   1.000  Hf
  Hf77     1.0000 0.76137  0.62397  0.49316  Biso   1.000  Hf
  Hf78     1.0000 0.75835  0.63012  0.00292  Biso   1.000  Hf
  Hf79     1.0000 0.22431  0.37712  0.00487  Biso   1.000  Hf
  Hf80     1.0000 0.21303  0.38122  0.50709  Biso   1.000  Hf
  Hf81     1.0000 0.21078  0.87431  0.00111  Biso   1.000  Hf
  Hf82     1.0000 0.20779  0.88046  0.51087  Biso   1.000  Hf
  Hf83     1.0000 0.70968  0.37377  0.02523  Biso   1.000  Hf
  Hf84     1.0000 0.71136  0.38196  0.51375  Biso   1.000  Hf
  Hf85     1.0000 0.72294  0.88150  0.01131  Biso   1.000  Hf
  Hf86     1.0000 0.70870  0.88006  0.51639  Biso   1.000  Hf
  Hf87     1.0000 0.21013  0.37346  0.25799  Biso   1.000  Hf
  Hf88     1.0000 0.21207  0.37416  0.75526  Biso   1.000  Hf
  Hf89     1.0000 0.21906  0.86466  0.26254  Biso   1.000  Hf
  Hf90     1.0000 0.20667  0.87389  0.75819  Biso   1.000  Hf
  Hf91     1.0000 0.70692  0.37545  0.27166  Biso   1.000  Hf
  Hf92     1.0000 0.69986  0.36712  0.75864  Biso   1.000  Hf
  Hf93     1.0000 0.70021  0.87250  0.26793  Biso   1.000  Hf
  Hf94     1.0000 0.70611  0.87871  0.76655  Biso   1.000  Hf
