data_image0
_cell_length_a       10.133
_cell_length_b       10.2747
_cell_length_c       10.4869
_cell_angle_alpha    90
_cell_angle_beta     90
_cell_angle_gamma    90

_symmetry_space_group_name_H-M    "P 1"
_symmetry_int_tables_number       1

loop_
  _symmetry_equiv_pos_as_xyz
  'x, y, z'

loop_
  _atom_site_label
  _atom_site_occupancy
  _atom_site_fract_x
  _atom_site_fract_y
  _atom_site_fract_z
  _atom_site_thermal_displace_type
  _atom_site_B_iso_or_equiv
  _atom_site_type_symbol
  La1      1.0000 0.13320  0.01929  0.15942  Biso   1.000  La
  Hf1      1.0000 0.13497  0.01597  0.66947  Biso   1.000  Hf
  Hf2      1.0000 0.13610  0.51929  0.17177  Biso   1.000  Hf
  Hf3      1.0000 0.13480  0.52463  0.66871  Biso   1.000  Hf
  Hf4      1.0000 0.13534  0.23071  0.42344  Biso   1.000  Hf
  La2      1.0000 0.12463  0.25025  0.89758  Biso   1.000  La
  Hf5      1.0000 0.13389  0.72902  0.41929  Biso   1.000  Hf
  Hf6      1.0000 0.13144  0.72975  0.91948  Biso   1.000  Hf
  Hf7      1.0000 0.36099  0.27178  0.16994  Biso   1.000  Hf
  Hf8      1.0000 0.36213  0.27163  0.66572  Biso   1.000  Hf
  Hf9      1.0000 0.36027  0.77075  0.17006  Biso   1.000  Hf
  Hf10     1.0000 0.35612  0.77349  0.67027  Biso   1.000  Hf
  Hf11     1.0000 0.35722  0.48001  0.41991  Biso   1.000  Hf
  Hf12     1.0000 0.35812  0.48522  0.92133  Biso   1.000  Hf
  Hf13     1.0000 0.35723  0.98085  0.41990  Biso   1.000  Hf
  Hf14     1.0000 0.35590  0.98448  0.91683  Biso   1.000  Hf
  Hf15     1.0000 0.63710  0.01928  0.08127  Biso   1.000  Hf
  Hf16     1.0000 0.63456  0.02135  0.58037  Biso   1.000  Hf
  Hf17     1.0000 0.63177  0.52827  0.07989  Biso   1.000  Hf
  Hf18     1.0000 0.63340  0.52332  0.57641  Biso   1.000  Hf
  Hf19     1.0000 0.63135  0.23047  0.33398  Biso   1.000  Hf
  Hf20     1.0000 0.63144  0.23041  0.82860  Biso   1.000  Hf
  Hf21     1.0000 0.63425  0.73198  0.32962  Biso   1.000  Hf
  Hf22     1.0000 0.63097  0.73373  0.82566  Biso   1.000  Hf
  Hf23     1.0000 0.82713  0.28380  0.08417  Biso   1.000  Hf
  Hf24     1.0000 0.85879  0.27153  0.58268  Biso   1.000  Hf
  Hf25     1.0000 0.85767  0.76719  0.07813  Biso   1.000  Hf
  Hf26     1.0000 0.85680  0.77259  0.57686  Biso   1.000  Hf
  Hf27     1.0000 0.85939  0.47906  0.33212  Biso   1.000  Hf
  Hf28     1.0000 0.85238  0.48478  0.82884  Biso   1.000  Hf
  Hf29     1.0000 0.85292  0.98251  0.33162  Biso   1.000  Hf
  Hf30     1.0000 0.85411  0.97778  0.82968  Biso   1.000  Hf
  Hf31     1.0000 0.03078  0.16676  0.59111  Biso   1.000  Hf
  Hf32     1.0000 0.03058  0.66315  0.08389  Biso   1.000  Hf
  Hf33     1.0000 0.02562  0.66405  0.57959  Biso   1.000  Hf
  Hf34     1.0000 0.01635  0.10023  0.33519  Biso   1.000  Hf
  Hf35     1.0000 0.03036  0.06274  0.84243  Biso   1.000  Hf
  Hf36     1.0000 0.02742  0.58658  0.33069  Biso   1.000  Hf
  Hf37     1.0000 0.02801  0.58200  0.83261  Biso   1.000  Hf
  Hf38     1.0000 0.46657  0.41870  0.08429  Biso   1.000  Hf
  Hf39     1.0000 0.46584  0.41624  0.57969  Biso   1.000  Hf
  Hf40     1.0000 0.46610  0.91839  0.08475  Biso   1.000  Hf
  Hf41     1.0000 0.46150  0.91843  0.58301  Biso   1.000  Hf
  Hf42     1.0000 0.46403  0.33684  0.33404  Biso   1.000  Hf
  Hf43     1.0000 0.46295  0.33471  0.83315  Biso   1.000  Hf
  Hf44     1.0000 0.46328  0.83511  0.33452  Biso   1.000  Hf
  Hf45     1.0000 0.46196  0.83934  0.82981  Biso   1.000  Hf
  Hf46     1.0000 0.27857  0.13037  0.30036  Biso   1.000  Hf
  Hf47     1.0000 0.28039  0.11756  0.77971  Biso   1.000  Hf
  Hf48     1.0000 0.27082  0.62221  0.29277  Biso   1.000  Hf
  Hf49     1.0000 0.26759  0.63075  0.79383  Biso   1.000  Hf
  Hf50     1.0000 0.28936  0.13479  0.03686  Biso   1.000  Hf
  Hf51     1.0000 0.26993  0.12657  0.54155  Biso   1.000  Hf
  Hf52     1.0000 0.27383  0.62374  0.04516  Biso   1.000  Hf
  Hf53     1.0000 0.27064  0.62810  0.54286  Biso   1.000  Hf
  Hf54     1.0000 0.22039  0.37395  0.29534  Biso   1.000  Hf
  Hf55     1.0000 0.24070  0.39166  0.77977  Biso   1.000  Hf
  Hf56     1.0000 0.22474  0.86854  0.29533  Biso   1.000  Hf
  Hf57     1.0000 0.21751  0.87296  0.79116  Biso   1.000  Hf
  Hf58     1.0000 0.22724  0.38413  0.04947  Biso   1.000  Hf
  Hf59     1.0000 0.22176  0.37827  0.54211  Biso   1.000  Hf
  Hf60     1.0000 0.23735  0.86540  0.03263  Biso   1.000  Hf
  Hf61     1.0000 0.21903  0.87656  0.54276  Biso   1.000  Hf
  Hf62     1.0000 0.53577  0.17021  0.16529  Biso   1.000  Hf
  Hf63     1.0000 0.53417  0.17010  0.66285  Biso   1.000  Hf
  Hf64     1.0000 0.52976  0.66849  0.16811  Biso   1.000  Hf
  Hf65     1.0000 0.52671  0.66583  0.66648  Biso   1.000  Hf
  Hf66     1.0000 0.53045  0.08410  0.41632  Biso   1.000  Hf
  Hf67     1.0000 0.53243  0.08330  0.91331  Biso   1.000  Hf
  Hf68     1.0000 0.52847  0.58658  0.41638  Biso   1.000  Hf
  Hf69     1.0000 0.52179  0.59443  0.91771  Biso   1.000  Hf
  Hf70     1.0000 0.96463  0.39645  0.17678  Biso   1.000  Hf
  Hf71     1.0000 0.97135  0.40395  0.68421  Biso   1.000  Hf
  Hf72     1.0000 0.93816  0.92115  0.16313  Biso   1.000  Hf
  Hf73     1.0000 0.95892  0.91481  0.66503  Biso   1.000  Hf
  Hf74     1.0000 0.96615  0.34525  0.43065  Biso   1.000  Hf
  Hf75     1.0000 0.93226  0.34582  0.93887  Biso   1.000  Hf
  Hf76     1.0000 0.96393  0.83860  0.41430  Biso   1.000  Hf
  Hf77     1.0000 0.95580  0.82839  0.91605  Biso   1.000  Hf
  Hf78     1.0000 0.77292  0.12855  0.96228  Biso   1.000  Hf
  Hf79     1.0000 0.76983  0.12627  0.46048  Biso   1.000  Hf
  Hf80     1.0000 0.76351  0.62511  0.95365  Biso   1.000  Hf
  Hf81     1.0000 0.77119  0.62520  0.45419  Biso   1.000  Hf
  Hf82     1.0000 0.77198  0.13269  0.21041  Biso   1.000  Hf
  Hf83     1.0000 0.77267  0.12612  0.70958  Biso   1.000  Hf
  Hf84     1.0000 0.77313  0.62811  0.20515  Biso   1.000  Hf
  Hf85     1.0000 0.77001  0.62890  0.70328  Biso   1.000  Hf
  Hf86     1.0000 0.69503  0.37858  0.95910  Biso   1.000  Hf
  Hf87     1.0000 0.72187  0.37492  0.45695  Biso   1.000  Hf
  Hf88     1.0000 0.71512  0.87625  0.95594  Biso   1.000  Hf
  Hf89     1.0000 0.72019  0.87519  0.45696  Biso   1.000  Hf
  Hf90     1.0000 0.71256  0.38609  0.21038  Biso   1.000  Hf
  Hf91     1.0000 0.72284  0.37883  0.70621  Biso   1.000  Hf
  Hf92     1.0000 0.71001  0.87877  0.20939  Biso   1.000  Hf
  Hf93     1.0000 0.71791  0.87658  0.70429  Biso   1.000  Hf
