data_image0
_cell_length_a       10.0623
_cell_length_b       10.3958
_cell_length_c       10.0868
_cell_angle_alpha    90
_cell_angle_beta     90
_cell_angle_gamma    90

_symmetry_space_group_name_H-M    "P 1"
_symmetry_int_tables_number       1

loop_
  _symmetry_equiv_pos_as_xyz
  'x, y, z'

loop_
  _atom_site_label
  _atom_site_occupancy
  _atom_site_fract_x
  _atom_site_fract_y
  _atom_site_fract_z
  _atom_site_thermal_displace_type
  _atom_site_B_iso_or_equiv
  _atom_site_type_symbol
  La1      1.0000 0.12086  0.00441  0.12167  Biso   1.000  La
  Hf1      1.0000 0.12942  0.01456  0.62500  Biso   1.000  Hf
  La2      1.0000 0.11935  0.50443  0.12167  Biso   1.000  La
  Hf2      1.0000 0.12791  0.51456  0.62500  Biso   1.000  Hf
  Hf3      1.0000 0.63368  0.01381  0.12614  Biso   1.000  Hf
  Hf4      1.0000 0.62857  0.01369  0.62707  Biso   1.000  Hf
  Hf5      1.0000 0.63217  0.51380  0.12614  Biso   1.000  Hf
  Hf6      1.0000 0.62705  0.51370  0.62707  Biso   1.000  Hf
  Hf7      1.0000 0.13196  0.23232  0.37861  Biso   1.000  Hf
  Hf8      1.0000 0.13075  0.23275  0.87055  Biso   1.000  Hf
  Hf9      1.0000 0.13045  0.73232  0.37862  Biso   1.000  Hf
  Hf10     1.0000 0.12922  0.73276  0.87055  Biso   1.000  Hf
  Hf11     1.0000 0.62727  0.23061  0.37916  Biso   1.000  Hf
  Hf12     1.0000 0.62969  0.22904  0.87540  Biso   1.000  Hf
  Hf13     1.0000 0.62575  0.73060  0.37918  Biso   1.000  Hf
  Hf14     1.0000 0.62818  0.72904  0.87541  Biso   1.000  Hf
  Hf15     1.0000 0.36645  0.26037  0.12557  Biso   1.000  Hf
  Hf16     1.0000 0.36076  0.26367  0.62491  Biso   1.000  Hf
  Hf17     1.0000 0.36495  0.76036  0.12557  Biso   1.000  Hf
  Hf18     1.0000 0.35925  0.76367  0.62492  Biso   1.000  Hf
  Hf19     1.0000 0.85595  0.26546  0.13038  Biso   1.000  Hf
  Hf20     1.0000 0.86214  0.26461  0.62453  Biso   1.000  Hf
  Hf21     1.0000 0.85443  0.76546  0.13040  Biso   1.000  Hf
  Hf22     1.0000 0.86062  0.76460  0.62454  Biso   1.000  Hf
  Hf23     1.0000 0.36071  0.48178  0.37457  Biso   1.000  Hf
  Hf24     1.0000 0.36193  0.48001  0.87417  Biso   1.000  Hf
  Hf25     1.0000 0.35918  0.98179  0.37457  Biso   1.000  Hf
  Hf26     1.0000 0.36040  0.98002  0.87417  Biso   1.000  Hf
  Hf27     1.0000 0.85553  0.48266  0.38251  Biso   1.000  Hf
  Hf28     1.0000 0.85633  0.47901  0.87356  Biso   1.000  Hf
  Hf29     1.0000 0.85402  0.98266  0.38251  Biso   1.000  Hf
  Hf30     1.0000 0.85480  0.97902  0.87356  Biso   1.000  Hf
  Hf31     1.0000 0.02883  0.20406  0.20209  Biso   1.000  Hf
  Hf32     1.0000 0.03516  0.18672  0.68319  Biso   1.000  Hf
  Hf33     1.0000 0.02731  0.70407  0.20210  Biso   1.000  Hf
  Hf34     1.0000 0.03365  0.68672  0.68319  Biso   1.000  Hf
  Hf35     1.0000 0.53548  0.18036  0.19549  Biso   1.000  Hf
  Hf36     1.0000 0.52953  0.18000  0.69597  Biso   1.000  Hf
  Hf37     1.0000 0.53396  0.68035  0.19551  Biso   1.000  Hf
  Hf38     1.0000 0.52802  0.67999  0.69598  Biso   1.000  Hf
  Hf39     1.0000 0.03159  0.06267  0.44002  Biso   1.000  Hf
  Hf40     1.0000 0.02252  0.07526  0.91793  Biso   1.000  Hf
  Hf41     1.0000 0.03007  0.56268  0.44003  Biso   1.000  Hf
  Hf42     1.0000 0.02100  0.57526  0.91794  Biso   1.000  Hf
  Hf43     1.0000 0.53151  0.06286  0.44752  Biso   1.000  Hf
  Hf44     1.0000 0.53179  0.06236  0.94485  Biso   1.000  Hf
  Hf45     1.0000 0.52999  0.56285  0.44754  Biso   1.000  Hf
  Hf46     1.0000 0.53027  0.56236  0.94487  Biso   1.000  Hf
  Hf47     1.0000 0.46256  0.43263  0.19392  Biso   1.000  Hf
  Hf48     1.0000 0.46048  0.42953  0.69596  Biso   1.000  Hf
  Hf49     1.0000 0.46104  0.93263  0.19391  Biso   1.000  Hf
  Hf50     1.0000 0.45896  0.92953  0.69596  Biso   1.000  Hf
  Hf51     1.0000 0.92451  0.43960  0.19858  Biso   1.000  Hf
  Hf52     1.0000 0.95697  0.43242  0.69315  Biso   1.000  Hf
  Hf53     1.0000 0.92299  0.93961  0.19857  Biso   1.000  Hf
  Hf54     1.0000 0.95544  0.93242  0.69313  Biso   1.000  Hf
  Hf55     1.0000 0.46046  0.31400  0.44833  Biso   1.000  Hf
  Hf56     1.0000 0.46634  0.31430  0.94594  Biso   1.000  Hf
  Hf57     1.0000 0.45894  0.81400  0.44834  Biso   1.000  Hf
  Hf58     1.0000 0.46484  0.81430  0.94595  Biso   1.000  Hf
  Hf59     1.0000 0.95874  0.31636  0.44573  Biso   1.000  Hf
  Hf60     1.0000 0.96659  0.32400  0.95559  Biso   1.000  Hf
  Hf61     1.0000 0.95723  0.81636  0.44574  Biso   1.000  Hf
  Hf62     1.0000 0.96508  0.82401  0.95559  Biso   1.000  Hf
  Hf63     1.0000 0.27638  0.11978  0.25486  Biso   1.000  Hf
  Hf64     1.0000 0.26607  0.11503  0.74719  Biso   1.000  Hf
  Hf65     1.0000 0.27486  0.61977  0.25487  Biso   1.000  Hf
  Hf66     1.0000 0.26455  0.61503  0.74720  Biso   1.000  Hf
  Hf67     1.0000 0.76343  0.11849  0.25399  Biso   1.000  Hf
  Hf68     1.0000 0.76541  0.11467  0.74870  Biso   1.000  Hf
  Hf69     1.0000 0.76192  0.61848  0.25400  Biso   1.000  Hf
  Hf70     1.0000 0.76389  0.61467  0.74871  Biso   1.000  Hf
  Hf71     1.0000 0.26544  0.12933  0.50132  Biso   1.000  Hf
  Hf72     1.0000 0.26911  0.12896  0.99144  Biso   1.000  Hf
  Hf73     1.0000 0.26392  0.62933  0.50133  Biso   1.000  Hf
  Hf74     1.0000 0.26758  0.62896  0.99144  Biso   1.000  Hf
  Hf75     1.0000 0.76403  0.13089  0.50185  Biso   1.000  Hf
  Hf76     1.0000 0.76444  0.12736  0.99993  Biso   1.000  Hf
  Hf77     1.0000 0.76252  0.63089  0.50185  Biso   1.000  Hf
  Hf78     1.0000 0.76291  0.62737  0.99994  Biso   1.000  Hf
  Hf79     1.0000 0.22482  0.38175  0.49982  Biso   1.000  Hf
  Hf80     1.0000 0.23671  0.36861  0.98989  Biso   1.000  Hf
  Hf81     1.0000 0.22330  0.88175  0.49983  Biso   1.000  Hf
  Hf82     1.0000 0.23519  0.86861  0.98990  Biso   1.000  Hf
  Hf83     1.0000 0.72299  0.37927  0.50299  Biso   1.000  Hf
  Hf84     1.0000 0.72953  0.37983  0.00010  Biso   1.000  Hf
  Hf85     1.0000 0.72147  0.87927  0.50300  Biso   1.000  Hf
  Hf86     1.0000 0.72801  0.87983  0.00011  Biso   1.000  Hf
  Hf87     1.0000 0.24035  0.35576  0.25693  Biso   1.000  Hf
  Hf88     1.0000 0.22477  0.36723  0.74502  Biso   1.000  Hf
  Hf89     1.0000 0.23885  0.85575  0.25693  Biso   1.000  Hf
  Hf90     1.0000 0.22325  0.86722  0.74501  Biso   1.000  Hf
  Hf91     1.0000 0.71282  0.36588  0.25356  Biso   1.000  Hf
  Hf92     1.0000 0.72504  0.36351  0.75026  Biso   1.000  Hf
  Hf93     1.0000 0.71130  0.86587  0.25356  Biso   1.000  Hf
  Hf94     1.0000 0.72352  0.86352  0.75026  Biso   1.000  Hf
