data_image0
_cell_length_a       10.1764
_cell_length_b       10.373
_cell_length_c       10.4776
_cell_angle_alpha    90
_cell_angle_beta     80
_cell_angle_gamma    90

_symmetry_space_group_name_H-M    "P 1"
_symmetry_int_tables_number       1

loop_
  _symmetry_equiv_pos_as_xyz
  'x, y, z'

loop_
  _atom_site_label
  _atom_site_occupancy
  _atom_site_fract_x
  _atom_site_fract_y
  _atom_site_fract_z
  _atom_site_thermal_displace_type
  _atom_site_B_iso_or_equiv
  _atom_site_type_symbol
  La1      1.0000 0.12771  0.01157  0.14053  Biso   1.000  La
  Hf1      1.0000 0.12676  0.02221  0.65016  Biso   1.000  Hf
  Hf2      1.0000 0.13555  0.52180  0.14583  Biso   1.000  Hf
  Hf3      1.0000 0.12466  0.52229  0.64746  Biso   1.000  Hf
  Hf4      1.0000 0.64635  0.01973  0.13844  Biso   1.000  Hf
  Hf5      1.0000 0.62789  0.02262  0.64786  Biso   1.000  Hf
  Hf6      1.0000 0.63181  0.51804  0.14659  Biso   1.000  Hf
  Hf7      1.0000 0.62594  0.52052  0.64858  Biso   1.000  Hf
  Hf8      1.0000 0.12499  0.23342  0.39957  Biso   1.000  Hf
  Hf9      1.0000 0.12399  0.23283  0.89592  Biso   1.000  Hf
  Hf10     1.0000 0.12942  0.72860  0.39712  Biso   1.000  Hf
  Hf11     1.0000 0.12333  0.72883  0.89665  Biso   1.000  Hf
  Hf12     1.0000 0.63356  0.23729  0.39919  Biso   1.000  Hf
  Hf13     1.0000 0.62353  0.22863  0.89902  Biso   1.000  Hf
  Hf14     1.0000 0.62744  0.72367  0.39876  Biso   1.000  Hf
  Hf15     1.0000 0.62372  0.72794  0.89500  Biso   1.000  Hf
  Hf16     1.0000 0.35667  0.27152  0.10398  Biso   1.000  Hf
  Hf17     1.0000 0.34786  0.27168  0.60687  Biso   1.000  Hf
  Hf18     1.0000 0.36110  0.76671  0.10153  Biso   1.000  Hf
  Hf19     1.0000 0.34720  0.76766  0.60759  Biso   1.000  Hf
  Hf20     1.0000 0.85864  0.27646  0.10233  Biso   1.000  Hf
  Hf21     1.0000 0.84748  0.27256  0.60850  Biso   1.000  Hf
  Hf22     1.0000 0.85251  0.76284  0.10193  Biso   1.000  Hf
  Hf23     1.0000 0.84766  0.77186  0.60447  Biso   1.000  Hf
  Hf24     1.0000 0.35053  0.47833  0.35527  Biso   1.000  Hf
  Hf25     1.0000 0.34651  0.47821  0.85607  Biso   1.000  Hf
  La2      1.0000 0.35839  0.98856  0.36060  Biso   1.000  La
  Hf26     1.0000 0.34443  0.97831  0.85334  Biso   1.000  Hf
  Hf27     1.0000 0.85427  0.48208  0.35449  Biso   1.000  Hf
  Hf28     1.0000 0.84525  0.47998  0.85491  Biso   1.000  Hf
  Hf29     1.0000 0.83975  0.98040  0.36264  Biso   1.000  Hf
  Hf30     1.0000 0.84332  0.97788  0.85563  Biso   1.000  Hf
  Hf31     1.0000 0.03521  0.19322  0.07664  Biso   1.000  Hf
  Hf32     1.0000 0.01725  0.17140  0.58905  Biso   1.000  Hf
  Hf33     1.0000 0.03460  0.67663  0.08288  Biso   1.000  Hf
  Hf34     1.0000 0.02102  0.66941  0.58274  Biso   1.000  Hf
  Hf35     1.0000 0.53438  0.16864  0.08137  Biso   1.000  Hf
  Hf36     1.0000 0.52182  0.16797  0.58011  Biso   1.000  Hf
  Hf37     1.0000 0.53489  0.66596  0.07817  Biso   1.000  Hf
  Hf38     1.0000 0.52521  0.66864  0.58861  Biso   1.000  Hf
  Hf39     1.0000 0.01754  0.08245  0.34945  Biso   1.000  Hf
  Hf40     1.0000 0.02448  0.07907  0.83666  Biso   1.000  Hf
  Hf41     1.0000 0.02788  0.58273  0.33028  Biso   1.000  Hf
  Hf42     1.0000 0.01982  0.58052  0.83270  Biso   1.000  Hf
  Hf43     1.0000 0.56632  0.07720  0.32623  Biso   1.000  Hf
  Hf44     1.0000 0.52490  0.08015  0.83100  Biso   1.000  Hf
  Hf45     1.0000 0.53007  0.57200  0.33336  Biso   1.000  Hf
  Hf46     1.0000 0.52155  0.57783  0.83362  Biso   1.000  Hf
  Hf47     1.0000 0.45821  0.41740  0.17084  Biso   1.000  Hf
  Hf48     1.0000 0.45137  0.41997  0.67083  Biso   1.000  Hf
  Hf49     1.0000 0.46854  0.91768  0.15168  Biso   1.000  Hf
  Hf50     1.0000 0.44673  0.92140  0.66686  Biso   1.000  Hf
  Hf51     1.0000 0.95599  0.42812  0.16773  Biso   1.000  Hf
  Hf52     1.0000 0.94960  0.42271  0.66986  Biso   1.000  Hf
  Hf53     1.0000 0.91976  0.92296  0.17484  Biso   1.000  Hf
  Hf54     1.0000 0.94630  0.92038  0.67248  Biso   1.000  Hf
  Hf55     1.0000 0.45147  0.32353  0.41826  Biso   1.000  Hf
  Hf56     1.0000 0.45019  0.33113  0.92078  Biso   1.000  Hf
  Hf57     1.0000 0.45087  0.80691  0.42446  Biso   1.000  Hf
  Hf58     1.0000 0.45396  0.82915  0.91450  Biso   1.000  Hf
  Hf59     1.0000 0.95116  0.33415  0.42294  Biso   1.000  Hf
  Hf60     1.0000 0.94598  0.33185  0.91486  Biso   1.000  Hf
  Hf61     1.0000 0.95172  0.83148  0.41971  Biso   1.000  Hf
  Hf62     1.0000 0.94936  0.83250  0.92338  Biso   1.000  Hf
  Hf63     1.0000 0.26355  0.14769  0.24554  Biso   1.000  Hf
  Hf64     1.0000 0.26461  0.12949  0.74308  Biso   1.000  Hf
  Hf65     1.0000 0.27352  0.62267  0.24006  Biso   1.000  Hf
  Hf66     1.0000 0.26125  0.62805  0.74309  Biso   1.000  Hf
  Hf67     1.0000 0.78259  0.13367  0.23879  Biso   1.000  Hf
  Hf68     1.0000 0.76302  0.12971  0.74397  Biso   1.000  Hf
  Hf69     1.0000 0.76748  0.62756  0.24067  Biso   1.000  Hf
  Hf70     1.0000 0.76177  0.62993  0.74141  Biso   1.000  Hf
  Hf71     1.0000 0.24978  0.13363  0.50614  Biso   1.000  Hf
  Hf72     1.0000 0.26836  0.12646  0.98279  Biso   1.000  Hf
  Hf73     1.0000 0.26250  0.61979  0.49295  Biso   1.000  Hf
  Hf74     1.0000 0.25847  0.61775  0.99220  Biso   1.000  Hf
  Hf75     1.0000 0.76297  0.12425  0.49599  Biso   1.000  Hf
  Hf76     1.0000 0.76239  0.12104  0.99112  Biso   1.000  Hf
  Hf77     1.0000 0.76586  0.62050  0.49214  Biso   1.000  Hf
  Hf78     1.0000 0.75892  0.61891  0.99145  Biso   1.000  Hf
  Hf79     1.0000 0.22359  0.38033  0.00816  Biso   1.000  Hf
  Hf80     1.0000 0.21271  0.38275  0.51133  Biso   1.000  Hf
  Hf81     1.0000 0.22143  0.86687  0.99737  Biso   1.000  Hf
  Hf82     1.0000 0.20286  0.87404  0.52071  Biso   1.000  Hf
  Hf83     1.0000 0.72024  0.37962  0.00895  Biso   1.000  Hf
  Hf84     1.0000 0.71227  0.38161  0.51204  Biso   1.000  Hf
  Hf85     1.0000 0.72311  0.87588  0.00509  Biso   1.000  Hf
  Hf86     1.0000 0.70880  0.87946  0.51238  Biso   1.000  Hf
  Hf87     1.0000 0.21255  0.37747  0.26105  Biso   1.000  Hf
  Hf88     1.0000 0.20994  0.37245  0.76042  Biso   1.000  Hf
  Hf89     1.0000 0.22254  0.85245  0.25556  Biso   1.000  Hf
  Hf90     1.0000 0.20659  0.87102  0.76044  Biso   1.000  Hf
  Hf91     1.0000 0.71859  0.37258  0.26044  Biso   1.000  Hf
  Hf92     1.0000 0.70942  0.37055  0.76210  Biso   1.000  Hf
  Hf93     1.0000 0.70348  0.86646  0.26229  Biso   1.000  Hf
  Hf94     1.0000 0.70818  0.87076  0.75952  Biso   1.000  Hf
