data_image0
_cell_length_a       10.198
_cell_length_b       10.3494
_cell_length_c       10.5192
_cell_angle_alpha    90
_cell_angle_beta     80
_cell_angle_gamma    90

_symmetry_space_group_name_H-M    "P 1"
_symmetry_int_tables_number       1

loop_
  _symmetry_equiv_pos_as_xyz
  'x, y, z'

loop_
  _atom_site_label
  _atom_site_occupancy
  _atom_site_fract_x
  _atom_site_fract_y
  _atom_site_fract_z
  _atom_site_thermal_displace_type
  _atom_site_B_iso_or_equiv
  _atom_site_type_symbol
  La1      1.0000 0.13667  0.02063  0.14796  Biso   1.000  La
  Hf1      1.0000 0.12612  0.01661  0.65308  Biso   1.000  Hf
  Hf2      1.0000 0.12299  0.53215  0.13774  Biso   1.000  Hf
  Hf3      1.0000 0.12476  0.51850  0.64776  Biso   1.000  Hf
  Hf4      1.0000 0.64159  0.02102  0.14249  Biso   1.000  Hf
  Hf5      1.0000 0.62734  0.01873  0.64802  Biso   1.000  Hf
  Hf6      1.0000 0.63431  0.51915  0.14486  Biso   1.000  Hf
  Hf7      1.0000 0.62404  0.52031  0.64755  Biso   1.000  Hf
  Hf8      1.0000 0.11180  0.22699  0.42080  Biso   1.000  Hf
  Hf9      1.0000 0.12240  0.22658  0.89762  Biso   1.000  Hf
  Hf10     1.0000 0.12801  0.72118  0.39887  Biso   1.000  Hf
  Hf11     1.0000 0.12277  0.72868  0.89364  Biso   1.000  Hf
  Hf12     1.0000 0.63538  0.22969  0.39698  Biso   1.000  Hf
  Hf13     1.0000 0.62782  0.22375  0.89540  Biso   1.000  Hf
  Hf14     1.0000 0.62949  0.72999  0.39995  Biso   1.000  Hf
  Hf15     1.0000 0.62403  0.72350  0.89472  Biso   1.000  Hf
  Hf16     1.0000 0.37116  0.27254  0.08866  Biso   1.000  Hf
  Hf17     1.0000 0.35040  0.26740  0.60729  Biso   1.000  Hf
  Hf18     1.0000 0.36272  0.76766  0.09615  Biso   1.000  Hf
  Hf19     1.0000 0.34773  0.76806  0.60585  Biso   1.000  Hf
  Hf20     1.0000 0.85844  0.27280  0.10253  Biso   1.000  Hf
  Hf21     1.0000 0.84236  0.27136  0.61158  Biso   1.000  Hf
  Hf22     1.0000 0.84975  0.77191  0.10465  Biso   1.000  Hf
  Hf23     1.0000 0.84944  0.76787  0.60512  Biso   1.000  Hf
  Hf24     1.0000 0.36594  0.48075  0.36065  Biso   1.000  Hf
  Hf25     1.0000 0.34617  0.47726  0.85446  Biso   1.000  Hf
  La2      1.0000 0.34983  0.98642  0.35622  Biso   1.000  La
  Hf26     1.0000 0.34710  0.97427  0.85439  Biso   1.000  Hf
  Hf27     1.0000 0.84907  0.48046  0.35532  Biso   1.000  Hf
  Hf28     1.0000 0.84685  0.47607  0.85510  Biso   1.000  Hf
  Hf29     1.0000 0.84758  0.97651  0.35961  Biso   1.000  Hf
  Hf30     1.0000 0.84445  0.97287  0.85648  Biso   1.000  Hf
  Hf31     1.0000 0.03278  0.18575  0.07209  Biso   1.000  Hf
  Hf32     1.0000 0.01214  0.16759  0.59819  Biso   1.000  Hf
  Hf33     1.0000 0.02988  0.67690  0.07588  Biso   1.000  Hf
  Hf34     1.0000 0.02031  0.66142  0.58177  Biso   1.000  Hf
  Hf35     1.0000 0.53835  0.17049  0.07517  Biso   1.000  Hf
  Hf36     1.0000 0.52315  0.16460  0.58073  Biso   1.000  Hf
  Hf37     1.0000 0.53325  0.66499  0.07875  Biso   1.000  Hf
  Hf38     1.0000 0.52478  0.66729  0.58546  Biso   1.000  Hf
  Hf39     1.0000 0.02714  0.07164  0.35720  Biso   1.000  Hf
  Hf40     1.0000 0.02345  0.07434  0.83685  Biso   1.000  Hf
  Hf41     1.0000 0.02338  0.58042  0.32581  Biso   1.000  Hf
  Hf42     1.0000 0.02035  0.57794  0.83105  Biso   1.000  Hf
  Hf43     1.0000 0.55153  0.08348  0.32115  Biso   1.000  Hf
  Hf44     1.0000 0.52505  0.07712  0.83068  Biso   1.000  Hf
  Hf45     1.0000 0.53386  0.57548  0.33549  Biso   1.000  Hf
  Hf46     1.0000 0.52023  0.57650  0.83127  Biso   1.000  Hf
  Hf47     1.0000 0.45358  0.41784  0.17718  Biso   1.000  Hf
  Hf48     1.0000 0.44935  0.41944  0.67011  Biso   1.000  Hf
  Hf49     1.0000 0.46230  0.92328  0.14883  Biso   1.000  Hf
  Hf50     1.0000 0.44885  0.91822  0.66967  Biso   1.000  Hf
  Hf51     1.0000 0.95799  0.42050  0.17184  Biso   1.000  Hf
  Hf52     1.0000 0.95025  0.41761  0.67182  Biso   1.000  Hf
  Hf53     1.0000 0.93685  0.91822  0.17779  Biso   1.000  Hf
  Hf54     1.0000 0.94778  0.91456  0.67454  Biso   1.000  Hf
  Hf55     1.0000 0.45590  0.32431  0.42383  Biso   1.000  Hf
  Hf56     1.0000 0.45580  0.33212  0.91513  Biso   1.000  Hf
  Hf57     1.0000 0.45411  0.81717  0.42616  Biso   1.000  Hf
  Hf58     1.0000 0.45274  0.82259  0.91519  Biso   1.000  Hf
  Hf59     1.0000 0.95017  0.33500  0.42630  Biso   1.000  Hf
  Hf60     1.0000 0.94680  0.32946  0.91789  Biso   1.000  Hf
  Hf61     1.0000 0.95216  0.82488  0.42206  Biso   1.000  Hf
  Hf62     1.0000 0.94660  0.82823  0.92423  Biso   1.000  Hf
  Hf63     1.0000 0.26406  0.12594  0.74562  Biso   1.000  Hf
  Hf64     1.0000 0.26509  0.59375  0.24174  Biso   1.000  Hf
  Hf65     1.0000 0.26059  0.62651  0.74155  Biso   1.000  Hf
  Hf66     1.0000 0.78442  0.13205  0.24025  Biso   1.000  Hf
  Hf67     1.0000 0.76248  0.12642  0.74397  Biso   1.000  Hf
  Hf68     1.0000 0.76727  0.62799  0.23900  Biso   1.000  Hf
  Hf69     1.0000 0.76123  0.62606  0.74119  Biso   1.000  Hf
  Hf70     1.0000 0.24955  0.12891  0.51070  Biso   1.000  Hf
  Hf71     1.0000 0.27176  0.12350  0.98416  Biso   1.000  Hf
  Hf72     1.0000 0.26650  0.61888  0.49270  Biso   1.000  Hf
  Hf73     1.0000 0.25487  0.61686  0.98935  Biso   1.000  Hf
  Hf74     1.0000 0.76425  0.12095  0.49507  Biso   1.000  Hf
  Hf75     1.0000 0.76113  0.11465  0.99167  Biso   1.000  Hf
  Hf76     1.0000 0.76459  0.61934  0.49152  Biso   1.000  Hf
  Hf77     1.0000 0.75696  0.61338  0.99201  Biso   1.000  Hf
  Hf78     1.0000 0.22485  0.38557  0.01584  Biso   1.000  Hf
  Hf79     1.0000 0.21304  0.38169  0.50348  Biso   1.000  Hf
  Hf80     1.0000 0.21850  0.86535  0.99812  Biso   1.000  Hf
  Hf81     1.0000 0.20110  0.86943  0.52060  Biso   1.000  Hf
  Hf82     1.0000 0.72094  0.38099  0.00968  Biso   1.000  Hf
  Hf83     1.0000 0.71130  0.37974  0.51249  Biso   1.000  Hf
  Hf84     1.0000 0.72207  0.87872  0.00696  Biso   1.000  Hf
  Hf85     1.0000 0.71238  0.87756  0.51185  Biso   1.000  Hf
  Hf86     1.0000 0.24957  0.21353  0.25296  Biso   1.000  Hf
  Hf87     1.0000 0.21007  0.36869  0.76101  Biso   1.000  Hf
  Hf88     1.0000 0.22336  0.83492  0.25304  Biso   1.000  Hf
  Hf89     1.0000 0.20855  0.86922  0.76017  Biso   1.000  Hf
  Hf90     1.0000 0.71666  0.37186  0.26050  Biso   1.000  Hf
  Hf91     1.0000 0.70952  0.36827  0.76215  Biso   1.000  Hf
  Hf92     1.0000 0.70527  0.86851  0.26143  Biso   1.000  Hf
  Hf93     1.0000 0.70845  0.86703  0.76044  Biso   1.000  Hf
