data_image0
_cell_length_a       10.0585
_cell_length_b       10.3901
_cell_length_c       10.081
_cell_angle_alpha    90
_cell_angle_beta     90
_cell_angle_gamma    90

_symmetry_space_group_name_H-M    "P 1"
_symmetry_int_tables_number       1

loop_
  _symmetry_equiv_pos_as_xyz
  'x, y, z'

loop_
  _atom_site_label
  _atom_site_occupancy
  _atom_site_fract_x
  _atom_site_fract_y
  _atom_site_fract_z
  _atom_site_thermal_displace_type
  _atom_site_B_iso_or_equiv
  _atom_site_type_symbol
  La1      1.0000 0.12658  0.00408  0.11647  Biso   1.000  La
  Hf1      1.0000 0.12914  0.01427  0.62311  Biso   1.000  Hf
  Hf2      1.0000 0.13531  0.51437  0.12423  Biso   1.000  Hf
  Hf3      1.0000 0.12990  0.51765  0.62661  Biso   1.000  Hf
  Hf4      1.0000 0.63369  0.01593  0.12539  Biso   1.000  Hf
  Hf5      1.0000 0.62699  0.01486  0.62262  Biso   1.000  Hf
  Hf6      1.0000 0.62978  0.52262  0.12600  Biso   1.000  Hf
  Hf7      1.0000 0.62611  0.51695  0.62861  Biso   1.000  Hf
  La2      1.0000 0.12368  0.24626  0.37605  Biso   1.000  La
  Hf8      1.0000 0.12695  0.23819  0.86734  Biso   1.000  Hf
  Hf9      1.0000 0.12898  0.73131  0.37538  Biso   1.000  Hf
  Hf10     1.0000 0.12886  0.73277  0.87535  Biso   1.000  Hf
  Hf11     1.0000 0.63020  0.23496  0.37605  Biso   1.000  Hf
  Hf12     1.0000 0.62294  0.23152  0.87074  Biso   1.000  Hf
  Hf13     1.0000 0.62881  0.73434  0.37984  Biso   1.000  Hf
  Hf14     1.0000 0.62723  0.73421  0.87429  Biso   1.000  Hf
  Hf15     1.0000 0.37031  0.26473  0.12165  Biso   1.000  Hf
  Hf16     1.0000 0.36144  0.26526  0.62245  Biso   1.000  Hf
  Hf17     1.0000 0.36955  0.76464  0.12319  Biso   1.000  Hf
  Hf18     1.0000 0.35970  0.76747  0.62322  Biso   1.000  Hf
  Hf19     1.0000 0.84254  0.27803  0.11720  Biso   1.000  Hf
  Hf20     1.0000 0.85647  0.26649  0.62942  Biso   1.000  Hf
  Hf21     1.0000 0.86067  0.76632  0.12980  Biso   1.000  Hf
  Hf22     1.0000 0.86193  0.76437  0.62699  Biso   1.000  Hf
  Hf23     1.0000 0.36716  0.48632  0.37156  Biso   1.000  Hf
  Hf24     1.0000 0.36037  0.48300  0.87412  Biso   1.000  Hf
  Hf25     1.0000 0.36210  0.98479  0.37301  Biso   1.000  Hf
  Hf26     1.0000 0.36178  0.98521  0.87066  Biso   1.000  Hf
  Hf27     1.0000 0.85667  0.48452  0.38156  Biso   1.000  Hf
  Hf28     1.0000 0.86159  0.48590  0.87428  Biso   1.000  Hf
  Hf29     1.0000 0.85688  0.97927  0.38243  Biso   1.000  Hf
  Hf30     1.0000 0.85671  0.98217  0.87186  Biso   1.000  Hf
  Hf31     1.0000 0.03218  0.18738  0.68161  Biso   1.000  Hf
  Hf32     1.0000 0.02922  0.67492  0.19669  Biso   1.000  Hf
  Hf33     1.0000 0.02899  0.68184  0.69874  Biso   1.000  Hf
  Hf34     1.0000 0.54628  0.18677  0.18948  Biso   1.000  Hf
  Hf35     1.0000 0.52929  0.18203  0.69305  Biso   1.000  Hf
  Hf36     1.0000 0.53299  0.68297  0.20032  Biso   1.000  Hf
  Hf37     1.0000 0.52853  0.68438  0.69562  Biso   1.000  Hf
  Hf38     1.0000 0.02583  0.05433  0.44602  Biso   1.000  Hf
  Hf39     1.0000 0.01835  0.08079  0.92449  Biso   1.000  Hf
  Hf40     1.0000 0.03201  0.56065  0.44628  Biso   1.000  Hf
  Hf41     1.0000 0.02682  0.56949  0.94687  Biso   1.000  Hf
  Hf42     1.0000 0.53651  0.06473  0.43781  Biso   1.000  Hf
  Hf43     1.0000 0.52886  0.06584  0.94407  Biso   1.000  Hf
  Hf44     1.0000 0.53020  0.56872  0.44825  Biso   1.000  Hf
  Hf45     1.0000 0.52698  0.56886  0.94685  Biso   1.000  Hf
  Hf46     1.0000 0.47006  0.43274  0.19467  Biso   1.000  Hf
  Hf47     1.0000 0.46167  0.43141  0.69777  Biso   1.000  Hf
  Hf48     1.0000 0.46279  0.93565  0.18854  Biso   1.000  Hf
  Hf49     1.0000 0.45827  0.93464  0.69365  Biso   1.000  Hf
  Hf50     1.0000 0.97767  0.40221  0.20752  Biso   1.000  Hf
  Hf51     1.0000 0.96218  0.43255  0.70220  Biso   1.000  Hf
  Hf52     1.0000 0.94629  0.92502  0.21098  Biso   1.000  Hf
  Hf53     1.0000 0.95847  0.93063  0.69693  Biso   1.000  Hf
  Hf54     1.0000 0.45980  0.31360  0.44091  Biso   1.000  Hf
  Hf55     1.0000 0.46024  0.31817  0.94241  Biso   1.000  Hf
  Hf56     1.0000 0.46253  0.81912  0.44771  Biso   1.000  Hf
  Hf57     1.0000 0.46429  0.81791  0.94463  Biso   1.000  Hf
  Hf58     1.0000 0.93560  0.32181  0.45647  Biso   1.000  Hf
  Hf59     1.0000 0.95760  0.32088  0.95436  Biso   1.000  Hf
  Hf60     1.0000 0.95756  0.80888  0.44895  Biso   1.000  Hf
  Hf61     1.0000 0.96881  0.82639  0.95916  Biso   1.000  Hf
  Hf62     1.0000 0.28251  0.12331  0.24452  Biso   1.000  Hf
  Hf63     1.0000 0.26155  0.11796  0.74709  Biso   1.000  Hf
  Hf64     1.0000 0.26705  0.61523  0.24767  Biso   1.000  Hf
  Hf65     1.0000 0.26486  0.61774  0.74896  Biso   1.000  Hf
  Hf66     1.0000 0.78476  0.12550  0.24793  Biso   1.000  Hf
  Hf67     1.0000 0.76103  0.11478  0.74798  Biso   1.000  Hf
  Hf68     1.0000 0.76834  0.61956  0.24973  Biso   1.000  Hf
  Hf69     1.0000 0.76410  0.61676  0.74926  Biso   1.000  Hf
  Hf70     1.0000 0.27612  0.12248  0.50458  Biso   1.000  Hf
  Hf71     1.0000 0.26560  0.14030  0.98732  Biso   1.000  Hf
  Hf72     1.0000 0.26389  0.63620  0.49822  Biso   1.000  Hf
  Hf73     1.0000 0.26251  0.62977  0.99940  Biso   1.000  Hf
  Hf74     1.0000 0.76132  0.13241  0.50145  Biso   1.000  Hf
  Hf75     1.0000 0.75981  0.13377  0.99611  Biso   1.000  Hf
  Hf76     1.0000 0.76492  0.63032  0.50117  Biso   1.000  Hf
  Hf77     1.0000 0.76297  0.63364  0.99804  Biso   1.000  Hf
  Hf78     1.0000 0.23936  0.39419  0.50398  Biso   1.000  Hf
  Hf79     1.0000 0.22264  0.38347  0.99290  Biso   1.000  Hf
  Hf80     1.0000 0.22366  0.88146  0.49675  Biso   1.000  Hf
  Hf81     1.0000 0.23583  0.87342  0.98854  Biso   1.000  Hf
  Hf82     1.0000 0.71294  0.38415  0.50223  Biso   1.000  Hf
  Hf83     1.0000 0.71856  0.38557  0.99977  Biso   1.000  Hf
  Hf84     1.0000 0.72396  0.87848  0.50373  Biso   1.000  Hf
  Hf85     1.0000 0.73319  0.88265  0.00070  Biso   1.000  Hf
  Hf86     1.0000 0.24117  0.37527  0.23588  Biso   1.000  Hf
  Hf87     1.0000 0.22640  0.36849  0.74500  Biso   1.000  Hf
  Hf88     1.0000 0.23980  0.85456  0.25377  Biso   1.000  Hf
  Hf89     1.0000 0.22356  0.86673  0.74555  Biso   1.000  Hf
  Hf90     1.0000 0.72557  0.37634  0.25059  Biso   1.000  Hf
  Hf91     1.0000 0.72478  0.36790  0.75327  Biso   1.000  Hf
  Hf92     1.0000 0.71616  0.86888  0.25218  Biso   1.000  Hf
  Hf93     1.0000 0.72397  0.86596  0.74968  Biso   1.000  Hf
