data_image0
_cell_length_a       10.0641
_cell_length_b       10.402
_cell_length_c       10.0671
_cell_angle_alpha    90
_cell_angle_beta     90
_cell_angle_gamma    90

_symmetry_space_group_name_H-M    "P 1"
_symmetry_int_tables_number       1

loop_
  _symmetry_equiv_pos_as_xyz
  'x, y, z'

loop_
  _atom_site_label
  _atom_site_occupancy
  _atom_site_fract_x
  _atom_site_fract_y
  _atom_site_fract_z
  _atom_site_thermal_displace_type
  _atom_site_B_iso_or_equiv
  _atom_site_type_symbol
  La1      1.0000 0.11288  0.99593  0.10750  Biso   1.000  La
  Hf1      1.0000 0.12063  0.00772  0.61867  Biso   1.000  Hf
  Hf2      1.0000 0.13514  0.51412  0.12603  Biso   1.000  Hf
  Hf3      1.0000 0.13011  0.51248  0.62583  Biso   1.000  Hf
  Hf4      1.0000 0.63916  0.01663  0.12970  Biso   1.000  Hf
  Hf5      1.0000 0.63057  0.01363  0.62743  Biso   1.000  Hf
  Hf6      1.0000 0.63164  0.51628  0.12631  Biso   1.000  Hf
  Hf7      1.0000 0.62788  0.51374  0.62700  Biso   1.000  Hf
  Hf8      1.0000 0.11740  0.24480  0.37907  Biso   1.000  Hf
  Hf9      1.0000 0.12360  0.23457  0.86118  Biso   1.000  Hf
  Hf10     1.0000 0.13220  0.73123  0.37543  Biso   1.000  Hf
  Hf11     1.0000 0.13104  0.72701  0.87689  Biso   1.000  Hf
  Hf12     1.0000 0.63908  0.23248  0.37961  Biso   1.000  Hf
  Hf13     1.0000 0.63188  0.22911  0.87742  Biso   1.000  Hf
  Hf14     1.0000 0.63323  0.72954  0.37908  Biso   1.000  Hf
  Hf15     1.0000 0.62962  0.72757  0.87752  Biso   1.000  Hf
  La2      1.0000 0.36964  0.25002  0.12096  Biso   1.000  La
  Hf16     1.0000 0.36659  0.26179  0.61463  Biso   1.000  Hf
  Hf17     1.0000 0.36924  0.76383  0.12147  Biso   1.000  Hf
  Hf18     1.0000 0.36032  0.76050  0.62850  Biso   1.000  Hf
  Hf19     1.0000 0.86836  0.26868  0.12954  Biso   1.000  Hf
  Hf20     1.0000 0.85911  0.26667  0.63021  Biso   1.000  Hf
  Hf21     1.0000 0.86033  0.76289  0.13095  Biso   1.000  Hf
  Hf22     1.0000 0.86295  0.75988  0.62881  Biso   1.000  Hf
  Hf23     1.0000 0.36400  0.48238  0.37429  Biso   1.000  Hf
  Hf24     1.0000 0.36147  0.47798  0.87248  Biso   1.000  Hf
  Hf25     1.0000 0.37628  0.96830  0.38079  Biso   1.000  Hf
  Hf26     1.0000 0.36445  0.98003  0.86584  Biso   1.000  Hf
  Hf27     1.0000 0.86240  0.48553  0.37741  Biso   1.000  Hf
  Hf28     1.0000 0.86166  0.48018  0.87972  Biso   1.000  Hf
  Hf29     1.0000 0.86073  0.97886  0.38556  Biso   1.000  Hf
  Hf30     1.0000 0.85520  0.97760  0.87390  Biso   1.000  Hf
  Hf31     1.0000 0.04661  0.19429  0.19796  Biso   1.000  Hf
  Hf32     1.0000 0.03418  0.18428  0.67726  Biso   1.000  Hf
  Hf33     1.0000 0.03482  0.68271  0.19768  Biso   1.000  Hf
  Hf34     1.0000 0.03026  0.67816  0.69990  Biso   1.000  Hf
  Hf35     1.0000 0.56053  0.18148  0.20385  Biso   1.000  Hf
  Hf36     1.0000 0.53220  0.17903  0.69626  Biso   1.000  Hf
  Hf37     1.0000 0.53715  0.68957  0.19616  Biso   1.000  Hf
  Hf38     1.0000 0.52923  0.67796  0.69984  Biso   1.000  Hf
  Hf39     1.0000 0.03117  0.06646  0.44216  Biso   1.000  Hf
  Hf40     1.0000 0.01678  0.07453  0.91313  Biso   1.000  Hf
  Hf41     1.0000 0.03322  0.56399  0.44794  Biso   1.000  Hf
  Hf42     1.0000 0.02698  0.56792  0.94883  Biso   1.000  Hf
  Hf43     1.0000 0.53870  0.06288  0.44822  Biso   1.000  Hf
  Hf44     1.0000 0.52602  0.06885  0.95275  Biso   1.000  Hf
  Hf45     1.0000 0.53293  0.56639  0.44778  Biso   1.000  Hf
  Hf46     1.0000 0.52888  0.56491  0.94887  Biso   1.000  Hf
  Hf47     1.0000 0.46917  0.44186  0.20187  Biso   1.000  Hf
  Hf48     1.0000 0.45917  0.42868  0.68707  Biso   1.000  Hf
  Hf49     1.0000 0.45206  0.95198  0.19148  Biso   1.000  Hf
  Hf50     1.0000 0.46339  0.92723  0.69200  Biso   1.000  Hf
  Hf51     1.0000 0.96299  0.43621  0.19867  Biso   1.000  Hf
  Hf52     1.0000 0.96491  0.42843  0.70330  Biso   1.000  Hf
  Hf53     1.0000 0.94480  0.91740  0.21694  Biso   1.000  Hf
  Hf54     1.0000 0.95786  0.92823  0.69667  Biso   1.000  Hf
  Hf55     1.0000 0.46670  0.31518  0.44069  Biso   1.000  Hf
  Hf56     1.0000 0.46762  0.32134  0.93081  Biso   1.000  Hf
  Hf57     1.0000 0.46626  0.81178  0.45209  Biso   1.000  Hf
  Hf58     1.0000 0.47046  0.81892  0.94682  Biso   1.000  Hf
  Hf59     1.0000 0.95525  0.31997  0.45249  Biso   1.000  Hf
  Hf60     1.0000 0.96000  0.31499  0.94832  Biso   1.000  Hf
  Hf61     1.0000 0.96752  0.81448  0.45684  Biso   1.000  Hf
  Hf62     1.0000 0.97315  0.82547  0.96325  Biso   1.000  Hf
  Hf63     1.0000 0.26855  0.10889  0.71693  Biso   1.000  Hf
  Hf64     1.0000 0.26995  0.61564  0.24835  Biso   1.000  Hf
  Hf65     1.0000 0.26464  0.61288  0.74901  Biso   1.000  Hf
  Hf66     1.0000 0.78494  0.11752  0.25544  Biso   1.000  Hf
  Hf67     1.0000 0.76520  0.11490  0.75240  Biso   1.000  Hf
  Hf68     1.0000 0.76727  0.61842  0.25165  Biso   1.000  Hf
  Hf69     1.0000 0.76608  0.61237  0.75010  Biso   1.000  Hf
  Hf70     1.0000 0.27599  0.13379  0.44437  Biso   1.000  Hf
  Hf71     1.0000 0.25618  0.12189  0.96557  Biso   1.000  Hf
  Hf72     1.0000 0.26650  0.63104  0.49950  Biso   1.000  Hf
  Hf73     1.0000 0.26660  0.62532  0.99967  Biso   1.000  Hf
  Hf74     1.0000 0.76830  0.13035  0.50649  Biso   1.000  Hf
  Hf75     1.0000 0.77061  0.13041  0.00446  Biso   1.000  Hf
  Hf76     1.0000 0.76848  0.62959  0.50080  Biso   1.000  Hf
  Hf77     1.0000 0.76527  0.62727  0.99952  Biso   1.000  Hf
  Hf78     1.0000 0.22819  0.38057  0.49998  Biso   1.000  Hf
  Hf79     1.0000 0.21904  0.38307  0.98911  Biso   1.000  Hf
  Hf80     1.0000 0.23081  0.88057  0.50013  Biso   1.000  Hf
  Hf81     1.0000 0.24208  0.86489  0.98584  Biso   1.000  Hf
  Hf82     1.0000 0.72826  0.38278  0.50383  Biso   1.000  Hf
  Hf83     1.0000 0.73162  0.38172  0.00438  Biso   1.000  Hf
  Hf84     1.0000 0.72714  0.87625  0.50504  Biso   1.000  Hf
  Hf85     1.0000 0.73398  0.87951  0.00336  Biso   1.000  Hf
  Hf86     1.0000 0.22184  0.37278  0.25560  Biso   1.000  Hf
  Hf87     1.0000 0.23156  0.36177  0.74205  Biso   1.000  Hf
  Hf88     1.0000 0.24205  0.85850  0.25546  Biso   1.000  Hf
  Hf89     1.0000 0.22401  0.86171  0.74552  Biso   1.000  Hf
  Hf90     1.0000 0.73330  0.36843  0.25410  Biso   1.000  Hf
  Hf91     1.0000 0.72506  0.36570  0.75343  Biso   1.000  Hf
  Hf92     1.0000 0.71461  0.86924  0.25513  Biso   1.000  Hf
  Hf93     1.0000 0.72582  0.86203  0.75190  Biso   1.000  Hf
