data_image0
_cell_length_a       10.1094
_cell_length_b       10.2989
_cell_length_c       10.5147
_cell_angle_alpha    90
_cell_angle_beta     90
_cell_angle_gamma    90

_symmetry_space_group_name_H-M    "P 1"
_symmetry_int_tables_number       1

loop_
  _symmetry_equiv_pos_as_xyz
  'x, y, z'

loop_
  _atom_site_label
  _atom_site_occupancy
  _atom_site_fract_x
  _atom_site_fract_y
  _atom_site_fract_z
  _atom_site_thermal_displace_type
  _atom_site_B_iso_or_equiv
  _atom_site_type_symbol
  La1      1.0000 0.12958  0.00858  0.15573  Biso   1.000  La
  Hf1      1.0000 0.13046  0.02131  0.67278  Biso   1.000  Hf
  Hf2      1.0000 0.13043  0.52025  0.16641  Biso   1.000  Hf
  Hf3      1.0000 0.12811  0.52370  0.66950  Biso   1.000  Hf
  Hf4      1.0000 0.11390  0.23888  0.43657  Biso   1.000  Hf
  Hf5      1.0000 0.12834  0.23359  0.91939  Biso   1.000  Hf
  Hf6      1.0000 0.13114  0.72477  0.42136  Biso   1.000  Hf
  Hf7      1.0000 0.12830  0.72862  0.91723  Biso   1.000  Hf
  Hf8      1.0000 0.36967  0.28184  0.15914  Biso   1.000  Hf
  Hf9      1.0000 0.35257  0.27092  0.67334  Biso   1.000  Hf
  Hf10     1.0000 0.36199  0.75917  0.16647  Biso   1.000  Hf
  Hf11     1.0000 0.35014  0.77407  0.66780  Biso   1.000  Hf
  Hf12     1.0000 0.35750  0.47286  0.42094  Biso   1.000  Hf
  Hf13     1.0000 0.34957  0.48223  0.91556  Biso   1.000  Hf
  La2      1.0000 0.35235  0.98676  0.40920  Biso   1.000  La
  Hf14     1.0000 0.35336  0.97872  0.91898  Biso   1.000  Hf
  Hf15     1.0000 0.63950  0.01864  0.08370  Biso   1.000  Hf
  Hf16     1.0000 0.63478  0.02150  0.58378  Biso   1.000  Hf
  Hf17     1.0000 0.64137  0.52195  0.07380  Biso   1.000  Hf
  Hf18     1.0000 0.62819  0.52188  0.57824  Biso   1.000  Hf
  Hf19     1.0000 0.64001  0.23220  0.32968  Biso   1.000  Hf
  Hf20     1.0000 0.62720  0.22794  0.83123  Biso   1.000  Hf
  Hf21     1.0000 0.63288  0.72662  0.32803  Biso   1.000  Hf
  Hf22     1.0000 0.62595  0.72934  0.82544  Biso   1.000  Hf
  Hf23     1.0000 0.85883  0.27354  0.07531  Biso   1.000  Hf
  Hf24     1.0000 0.84646  0.27328  0.58561  Biso   1.000  Hf
  Hf25     1.0000 0.85428  0.76898  0.07808  Biso   1.000  Hf
  Hf26     1.0000 0.85311  0.77156  0.58002  Biso   1.000  Hf
  Hf27     1.0000 0.85299  0.48270  0.32814  Biso   1.000  Hf
  Hf28     1.0000 0.85100  0.48051  0.82556  Biso   1.000  Hf
  Hf29     1.0000 0.85227  0.97946  0.33729  Biso   1.000  Hf
  Hf30     1.0000 0.85009  0.97922  0.83272  Biso   1.000  Hf
  Hf31     1.0000 0.03141  0.18591  0.07862  Biso   1.000  Hf
  Hf32     1.0000 0.01893  0.17353  0.60005  Biso   1.000  Hf
  Hf33     1.0000 0.03166  0.66863  0.08388  Biso   1.000  Hf
  Hf34     1.0000 0.02275  0.66601  0.58456  Biso   1.000  Hf
  Hf35     1.0000 0.04424  0.07954  0.35099  Biso   1.000  Hf
  Hf36     1.0000 0.02807  0.07968  0.84156  Biso   1.000  Hf
  Hf37     1.0000 0.02978  0.57904  0.33379  Biso   1.000  Hf
  Hf38     1.0000 0.02212  0.58455  0.83241  Biso   1.000  Hf
  Hf39     1.0000 0.46999  0.41613  0.07419  Biso   1.000  Hf
  Hf40     1.0000 0.46046  0.41008  0.58268  Biso   1.000  Hf
  Hf41     1.0000 0.46441  0.91398  0.08650  Biso   1.000  Hf
  Hf42     1.0000 0.46420  0.91144  0.58550  Biso   1.000  Hf
  Hf43     1.0000 0.46596  0.33748  0.32583  Biso   1.000  Hf
  Hf44     1.0000 0.45662  0.33491  0.83404  Biso   1.000  Hf
  Hf45     1.0000 0.46152  0.81599  0.32919  Biso   1.000  Hf
  Hf46     1.0000 0.45756  0.83707  0.83035  Biso   1.000  Hf
  Hf47     1.0000 0.26703  0.12416  0.79494  Biso   1.000  Hf
  Hf48     1.0000 0.27484  0.59790  0.28755  Biso   1.000  Hf
  Hf49     1.0000 0.26505  0.62584  0.79135  Biso   1.000  Hf
  Hf50     1.0000 0.28750  0.13713  0.04010  Biso   1.000  Hf
  Hf51     1.0000 0.25822  0.13781  0.54814  Biso   1.000  Hf
  Hf52     1.0000 0.27026  0.62066  0.04043  Biso   1.000  Hf
  Hf53     1.0000 0.26862  0.62705  0.54118  Biso   1.000  Hf
  Hf54     1.0000 0.22126  0.33222  0.29192  Biso   1.000  Hf
  Hf55     1.0000 0.21459  0.37600  0.79214  Biso   1.000  Hf
  Hf56     1.0000 0.21520  0.84058  0.28419  Biso   1.000  Hf
  Hf57     1.0000 0.21319  0.87495  0.79141  Biso   1.000  Hf
  Hf58     1.0000 0.22361  0.38164  0.04175  Biso   1.000  Hf
  Hf59     1.0000 0.21439  0.38390  0.54447  Biso   1.000  Hf
  Hf60     1.0000 0.24060  0.86185  0.02976  Biso   1.000  Hf
  Hf61     1.0000 0.20682  0.87353  0.54916  Biso   1.000  Hf
  Hf62     1.0000 0.52383  0.15570  0.17700  Biso   1.000  Hf
  Hf63     1.0000 0.52204  0.16127  0.67341  Biso   1.000  Hf
  Hf64     1.0000 0.53369  0.65711  0.16440  Biso   1.000  Hf
  Hf65     1.0000 0.52089  0.66296  0.66704  Biso   1.000  Hf
  Hf66     1.0000 0.54489  0.09762  0.42805  Biso   1.000  Hf
  Hf67     1.0000 0.52700  0.08529  0.92273  Biso   1.000  Hf
  Hf68     1.0000 0.52597  0.58023  0.41810  Biso   1.000  Hf
  Hf69     1.0000 0.52090  0.58677  0.91525  Biso   1.000  Hf
  Hf70     1.0000 0.95917  0.41931  0.16658  Biso   1.000  Hf
  Hf71     1.0000 0.95480  0.42106  0.66386  Biso   1.000  Hf
  Hf72     1.0000 0.93229  0.91983  0.16761  Biso   1.000  Hf
  Hf73     1.0000 0.95416  0.91793  0.66852  Biso   1.000  Hf
  Hf74     1.0000 0.95096  0.33886  0.42194  Biso   1.000  Hf
  Hf75     1.0000 0.95452  0.33669  0.90996  Biso   1.000  Hf
  Hf76     1.0000 0.95839  0.83173  0.41619  Biso   1.000  Hf
  Hf77     1.0000 0.95764  0.83676  0.92181  Biso   1.000  Hf
  Hf78     1.0000 0.76698  0.12263  0.95828  Biso   1.000  Hf
  Hf79     1.0000 0.78168  0.12497  0.46031  Biso   1.000  Hf
  Hf80     1.0000 0.76386  0.62350  0.95185  Biso   1.000  Hf
  Hf81     1.0000 0.76845  0.62373  0.45493  Biso   1.000  Hf
  Hf82     1.0000 0.77364  0.12978  0.20909  Biso   1.000  Hf
  Hf83     1.0000 0.76601  0.12717  0.71097  Biso   1.000  Hf
  Hf84     1.0000 0.77474  0.62731  0.20329  Biso   1.000  Hf
  Hf85     1.0000 0.76464  0.62727  0.70312  Biso   1.000  Hf
  Hf86     1.0000 0.71334  0.37414  0.95267  Biso   1.000  Hf
  Hf87     1.0000 0.71439  0.37518  0.45593  Biso   1.000  Hf
  Hf88     1.0000 0.71151  0.87265  0.95785  Biso   1.000  Hf
  Hf89     1.0000 0.71724  0.87514  0.45898  Biso   1.000  Hf
  Hf90     1.0000 0.71956  0.37932  0.20339  Biso   1.000  Hf
  Hf91     1.0000 0.71213  0.37655  0.70619  Biso   1.000  Hf
  Hf92     1.0000 0.70755  0.87620  0.21225  Biso   1.000  Hf
  Hf93     1.0000 0.71636  0.87531  0.70887  Biso   1.000  Hf
