data_image0
_cell_length_a       10.0593
_cell_length_b       10.3982
_cell_length_c       10.112
_cell_angle_alpha    90
_cell_angle_beta     90
_cell_angle_gamma    90

_symmetry_space_group_name_H-M    "P 1"
_symmetry_int_tables_number       1

loop_
  _symmetry_equiv_pos_as_xyz
  'x, y, z'

loop_
  _atom_site_label
  _atom_site_occupancy
  _atom_site_fract_x
  _atom_site_fract_y
  _atom_site_fract_z
  _atom_site_thermal_displace_type
  _atom_site_B_iso_or_equiv
  _atom_site_type_symbol
  La1      1.0000 0.12117  0.00367  0.11914  Biso   1.000  La
  Hf1      1.0000 0.12648  0.01183  0.62564  Biso   1.000  Hf
  Hf2      1.0000 0.13238  0.51404  0.12502  Biso   1.000  Hf
  Hf3      1.0000 0.12725  0.51391  0.62573  Biso   1.000  Hf
  Hf4      1.0000 0.63238  0.01402  0.12503  Biso   1.000  Hf
  Hf5      1.0000 0.62724  0.01389  0.62573  Biso   1.000  Hf
  La2      1.0000 0.62118  0.50368  0.11916  Biso   1.000  La
  Hf6      1.0000 0.62647  0.51184  0.62566  Biso   1.000  Hf
  Hf7      1.0000 0.12814  0.23068  0.37998  Biso   1.000  Hf
  Hf8      1.0000 0.12908  0.23042  0.86965  Biso   1.000  Hf
  Hf9      1.0000 0.12922  0.73027  0.37576  Biso   1.000  Hf
  Hf10     1.0000 0.12940  0.72798  0.87544  Biso   1.000  Hf
  Hf11     1.0000 0.62921  0.23028  0.37575  Biso   1.000  Hf
  Hf12     1.0000 0.62940  0.22799  0.87545  Biso   1.000  Hf
  Hf13     1.0000 0.62812  0.73069  0.38001  Biso   1.000  Hf
  Hf14     1.0000 0.62908  0.73042  0.86968  Biso   1.000  Hf
  Hf15     1.0000 0.35784  0.26187  0.12944  Biso   1.000  Hf
  Hf16     1.0000 0.36085  0.26062  0.62452  Biso   1.000  Hf
  Hf17     1.0000 0.36576  0.76407  0.12561  Biso   1.000  Hf
  Hf18     1.0000 0.36008  0.76459  0.62381  Biso   1.000  Hf
  Hf19     1.0000 0.86576  0.26408  0.12559  Biso   1.000  Hf
  Hf20     1.0000 0.86009  0.26459  0.62379  Biso   1.000  Hf
  Hf21     1.0000 0.85783  0.76187  0.12945  Biso   1.000  Hf
  Hf22     1.0000 0.86085  0.76060  0.62452  Biso   1.000  Hf
  Hf23     1.0000 0.35575  0.47962  0.38114  Biso   1.000  Hf
  Hf24     1.0000 0.35564  0.47666  0.87256  Biso   1.000  Hf
  Hf25     1.0000 0.36069  0.98223  0.37603  Biso   1.000  Hf
  Hf26     1.0000 0.36182  0.97937  0.87306  Biso   1.000  Hf
  Hf27     1.0000 0.86070  0.48221  0.37602  Biso   1.000  Hf
  Hf28     1.0000 0.86182  0.47936  0.87305  Biso   1.000  Hf
  Hf29     1.0000 0.85574  0.97964  0.38115  Biso   1.000  Hf
  Hf30     1.0000 0.85564  0.97668  0.87254  Biso   1.000  Hf
  Hf31     1.0000 0.02399  0.18983  0.20865  Biso   1.000  Hf
  Hf32     1.0000 0.03241  0.18404  0.68473  Biso   1.000  Hf
  Hf33     1.0000 0.03532  0.68540  0.19294  Biso   1.000  Hf
  Hf34     1.0000 0.02821  0.67912  0.69775  Biso   1.000  Hf
  Hf35     1.0000 0.53532  0.18539  0.19294  Biso   1.000  Hf
  Hf36     1.0000 0.52820  0.17911  0.69777  Biso   1.000  Hf
  Hf37     1.0000 0.52394  0.68981  0.20871  Biso   1.000  Hf
  Hf38     1.0000 0.53241  0.68404  0.68476  Biso   1.000  Hf
  Hf39     1.0000 0.02753  0.06193  0.44493  Biso   1.000  Hf
  Hf40     1.0000 0.02118  0.07152  0.91760  Biso   1.000  Hf
  Hf41     1.0000 0.02957  0.56413  0.44780  Biso   1.000  Hf
  Hf42     1.0000 0.02909  0.56407  0.94351  Biso   1.000  Hf
  Hf43     1.0000 0.52956  0.06414  0.44779  Biso   1.000  Hf
  Hf44     1.0000 0.52910  0.06406  0.94349  Biso   1.000  Hf
  Hf45     1.0000 0.52751  0.56193  0.44499  Biso   1.000  Hf
  Hf46     1.0000 0.52113  0.57155  0.91769  Biso   1.000  Hf
  Hf47     1.0000 0.43918  0.42298  0.21017  Biso   1.000  Hf
  Hf48     1.0000 0.45717  0.42826  0.69374  Biso   1.000  Hf
  Hf49     1.0000 0.45913  0.93886  0.19388  Biso   1.000  Hf
  Hf50     1.0000 0.46067  0.92956  0.69739  Biso   1.000  Hf
  Hf51     1.0000 0.95912  0.43884  0.19388  Biso   1.000  Hf
  Hf52     1.0000 0.96067  0.42955  0.69740  Biso   1.000  Hf
  Hf53     1.0000 0.93911  0.92302  0.21012  Biso   1.000  Hf
  Hf54     1.0000 0.95715  0.92824  0.69368  Biso   1.000  Hf
  Hf55     1.0000 0.45983  0.31173  0.44941  Biso   1.000  Hf
  Hf56     1.0000 0.46802  0.32155  0.95588  Biso   1.000  Hf
  Hf57     1.0000 0.46087  0.81773  0.44993  Biso   1.000  Hf
  Hf58     1.0000 0.46808  0.81653  0.95057  Biso   1.000  Hf
  Hf59     1.0000 0.96089  0.31772  0.44991  Biso   1.000  Hf
  Hf60     1.0000 0.96806  0.31654  0.95054  Biso   1.000  Hf
  Hf61     1.0000 0.95982  0.81173  0.44940  Biso   1.000  Hf
  Hf62     1.0000 0.96802  0.82155  0.95589  Biso   1.000  Hf
  Hf63     1.0000 0.27476  0.12456  0.25675  Biso   1.000  Hf
  Hf64     1.0000 0.26474  0.11191  0.74577  Biso   1.000  Hf
  Hf65     1.0000 0.26232  0.61029  0.25181  Biso   1.000  Hf
  Hf66     1.0000 0.26374  0.61376  0.74877  Biso   1.000  Hf
  Hf67     1.0000 0.76232  0.11029  0.25181  Biso   1.000  Hf
  Hf68     1.0000 0.76374  0.11377  0.74877  Biso   1.000  Hf
  Hf69     1.0000 0.77474  0.62456  0.25678  Biso   1.000  Hf
  Hf70     1.0000 0.76472  0.61191  0.74580  Biso   1.000  Hf
  Hf71     1.0000 0.26314  0.12767  0.50120  Biso   1.000  Hf
  Hf72     1.0000 0.26678  0.13022  0.98925  Biso   1.000  Hf
  Hf73     1.0000 0.26217  0.63150  0.50111  Biso   1.000  Hf
  Hf74     1.0000 0.27372  0.62856  0.00056  Biso   1.000  Hf
  Hf75     1.0000 0.76218  0.13150  0.50109  Biso   1.000  Hf
  Hf76     1.0000 0.77375  0.12854  0.00055  Biso   1.000  Hf
  Hf77     1.0000 0.76313  0.62768  0.50121  Biso   1.000  Hf
  Hf78     1.0000 0.76678  0.63022  0.98929  Biso   1.000  Hf
  Hf79     1.0000 0.22382  0.37888  0.50236  Biso   1.000  Hf
  Hf80     1.0000 0.23388  0.38140  0.00013  Biso   1.000  Hf
  Hf81     1.0000 0.22365  0.88103  0.49903  Biso   1.000  Hf
  Hf82     1.0000 0.23634  0.86608  0.98760  Biso   1.000  Hf
  Hf83     1.0000 0.72366  0.38105  0.49901  Biso   1.000  Hf
  Hf84     1.0000 0.73634  0.36608  0.98759  Biso   1.000  Hf
  Hf85     1.0000 0.72382  0.87888  0.50236  Biso   1.000  Hf
  Hf86     1.0000 0.73388  0.88140  0.00011  Biso   1.000  Hf
  Hf87     1.0000 0.21210  0.36512  0.25118  Biso   1.000  Hf
  Hf88     1.0000 0.22520  0.36367  0.74770  Biso   1.000  Hf
  Hf89     1.0000 0.23975  0.85379  0.25693  Biso   1.000  Hf
  Hf90     1.0000 0.22350  0.86328  0.74597  Biso   1.000  Hf
  Hf91     1.0000 0.73975  0.35378  0.25690  Biso   1.000  Hf
  Hf92     1.0000 0.72353  0.36328  0.74595  Biso   1.000  Hf
  Hf93     1.0000 0.71207  0.86511  0.25116  Biso   1.000  Hf
  Hf94     1.0000 0.72519  0.86369  0.74770  Biso   1.000  Hf
