data_image0
_cell_length_a       10.035
_cell_length_b       10.3879
_cell_length_c       10.0932
_cell_angle_alpha    90
_cell_angle_beta     90
_cell_angle_gamma    90

_symmetry_space_group_name_H-M    "P 1"
_symmetry_int_tables_number       1

loop_
  _symmetry_equiv_pos_as_xyz
  'x, y, z'

loop_
  _atom_site_label
  _atom_site_occupancy
  _atom_site_fract_x
  _atom_site_fract_y
  _atom_site_fract_z
  _atom_site_thermal_displace_type
  _atom_site_B_iso_or_equiv
  _atom_site_type_symbol
  Hf1      1.0000 0.10661  0.98665  0.08952  Biso   1.000  Hf
  Hf2      1.0000 0.13284  0.02095  0.62142  Biso   1.000  Hf
  Hf3      1.0000 0.13846  0.51581  0.12672  Biso   1.000  Hf
  Hf4      1.0000 0.13609  0.52129  0.62389  Biso   1.000  Hf
  Hf5      1.0000 0.64175  0.01602  0.12609  Biso   1.000  Hf
  Hf6      1.0000 0.63589  0.02185  0.63102  Biso   1.000  Hf
  Hf7      1.0000 0.63602  0.51693  0.12717  Biso   1.000  Hf
  Hf8      1.0000 0.63375  0.52167  0.62598  Biso   1.000  Hf
  Hf9      1.0000 0.11913  0.24858  0.37789  Biso   1.000  Hf
  Hf10     1.0000 0.13493  0.23986  0.87035  Biso   1.000  Hf
  Hf11     1.0000 0.13773  0.73827  0.37293  Biso   1.000  Hf
  Hf12     1.0000 0.13915  0.73524  0.87251  Biso   1.000  Hf
  Hf13     1.0000 0.64426  0.23624  0.38452  Biso   1.000  Hf
  Hf14     1.0000 0.63816  0.23947  0.87598  Biso   1.000  Hf
  Hf15     1.0000 0.63480  0.73481  0.37781  Biso   1.000  Hf
  Hf16     1.0000 0.63618  0.73427  0.87402  Biso   1.000  Hf
  La1      1.0000 0.37295  0.25342  0.11951  Biso   1.000  La
  Hf17     1.0000 0.36880  0.27093  0.62268  Biso   1.000  Hf
  Hf18     1.0000 0.37040  0.76377  0.11828  Biso   1.000  Hf
  Hf19     1.0000 0.36720  0.77222  0.62342  Biso   1.000  Hf
  Hf20     1.0000 0.87407  0.26524  0.12735  Biso   1.000  Hf
  Hf21     1.0000 0.86683  0.27317  0.63312  Biso   1.000  Hf
  Hf22     1.0000 0.86388  0.76384  0.13115  Biso   1.000  Hf
  Hf23     1.0000 0.86921  0.76860  0.62351  Biso   1.000  Hf
  Hf24     1.0000 0.36908  0.48645  0.37589  Biso   1.000  Hf
  Hf25     1.0000 0.36829  0.48976  0.87064  Biso   1.000  Hf
  La2      1.0000 0.37747  0.99728  0.36251  Biso   1.000  La
  Hf26     1.0000 0.37238  0.98666  0.87223  Biso   1.000  Hf
  Hf27     1.0000 0.86677  0.48935  0.37734  Biso   1.000  Hf
  Hf28     1.0000 0.86928  0.48972  0.87763  Biso   1.000  Hf
  Hf29     1.0000 0.86934  0.98573  0.38225  Biso   1.000  Hf
  Hf30     1.0000 0.86263  0.98459  0.87138  Biso   1.000  Hf
  Hf31     1.0000 0.06731  0.16809  0.19268  Biso   1.000  Hf
  Hf32     1.0000 0.03658  0.18951  0.69291  Biso   1.000  Hf
  Hf33     1.0000 0.03201  0.67752  0.19811  Biso   1.000  Hf
  Hf34     1.0000 0.03545  0.68794  0.69924  Biso   1.000  Hf
  Hf35     1.0000 0.54408  0.15943  0.22596  Biso   1.000  Hf
  Hf36     1.0000 0.53781  0.18979  0.70065  Biso   1.000  Hf
  Hf37     1.0000 0.54002  0.68703  0.19532  Biso   1.000  Hf
  Hf38     1.0000 0.53688  0.68681  0.69572  Biso   1.000  Hf
  Hf39     1.0000 0.03337  0.07190  0.44457  Biso   1.000  Hf
  Hf40     1.0000 0.02074  0.07973  0.93147  Biso   1.000  Hf
  Hf41     1.0000 0.03578  0.57146  0.44781  Biso   1.000  Hf
  Hf42     1.0000 0.03408  0.57754  0.94901  Biso   1.000  Hf
  Hf43     1.0000 0.55091  0.07770  0.46436  Biso   1.000  Hf
  Hf44     1.0000 0.53143  0.08037  0.95321  Biso   1.000  Hf
  Hf45     1.0000 0.53910  0.56886  0.44634  Biso   1.000  Hf
  Hf46     1.0000 0.53878  0.57090  0.94783  Biso   1.000  Hf
  Hf47     1.0000 0.47513  0.43985  0.20380  Biso   1.000  Hf
  Hf48     1.0000 0.46325  0.44068  0.68802  Biso   1.000  Hf
  Hf49     1.0000 0.46675  0.93111  0.16130  Biso   1.000  Hf
  Hf50     1.0000 0.46930  0.93832  0.69382  Biso   1.000  Hf
  Hf51     1.0000 0.97467  0.42247  0.20450  Biso   1.000  Hf
  Hf52     1.0000 0.96915  0.43857  0.70054  Biso   1.000  Hf
  Hf53     1.0000 0.95646  0.93006  0.20236  Biso   1.000  Hf
  Hf54     1.0000 0.96780  0.93659  0.69629  Biso   1.000  Hf
  Hf55     1.0000 0.46797  0.31840  0.44461  Biso   1.000  Hf
  Hf56     1.0000 0.47182  0.33010  0.92888  Biso   1.000  Hf
  Hf57     1.0000 0.47216  0.81618  0.45038  Biso   1.000  Hf
  Hf58     1.0000 0.46731  0.81748  0.93275  Biso   1.000  Hf
  Hf59     1.0000 0.96201  0.32483  0.45446  Biso   1.000  Hf
  Hf60     1.0000 0.96851  0.32311  0.94781  Biso   1.000  Hf
  Hf61     1.0000 0.96664  0.81797  0.44518  Biso   1.000  Hf
  Hf62     1.0000 0.98675  0.83981  0.96863  Biso   1.000  Hf
  Hf63     1.0000 0.27277  0.12147  0.74258  Biso   1.000  Hf
  Hf64     1.0000 0.27296  0.62004  0.24706  Biso   1.000  Hf
  Hf65     1.0000 0.27074  0.62309  0.74648  Biso   1.000  Hf
  Hf66     1.0000 0.78627  0.12303  0.25336  Biso   1.000  Hf
  Hf67     1.0000 0.77143  0.12360  0.75453  Biso   1.000  Hf
  Hf68     1.0000 0.77189  0.61765  0.25013  Biso   1.000  Hf
  Hf69     1.0000 0.77243  0.62060  0.74899  Biso   1.000  Hf
  Hf70     1.0000 0.25692  0.15213  0.49200  Biso   1.000  Hf
  Hf71     1.0000 0.25312  0.11807  0.99192  Biso   1.000  Hf
  Hf72     1.0000 0.27249  0.63774  0.49709  Biso   1.000  Hf
  Hf73     1.0000 0.27322  0.63448  0.99608  Biso   1.000  Hf
  Hf74     1.0000 0.78086  0.13768  0.50715  Biso   1.000  Hf
  Hf75     1.0000 0.76943  0.12981  0.00346  Biso   1.000  Hf
  Hf76     1.0000 0.77238  0.63616  0.49947  Biso   1.000  Hf
  Hf77     1.0000 0.77582  0.63840  0.99896  Biso   1.000  Hf
  Hf78     1.0000 0.23209  0.39200  0.50012  Biso   1.000  Hf
  Hf79     1.0000 0.22642  0.39184  0.99023  Biso   1.000  Hf
  Hf80     1.0000 0.22432  0.88125  0.49969  Biso   1.000  Hf
  Hf81     1.0000 0.23883  0.87792  0.98758  Biso   1.000  Hf
  Hf82     1.0000 0.73395  0.38882  0.50344  Biso   1.000  Hf
  Hf83     1.0000 0.73595  0.37971  0.00505  Biso   1.000  Hf
  Hf84     1.0000 0.73367  0.88595  0.50329  Biso   1.000  Hf
  Hf85     1.0000 0.73503  0.88278  0.99845  Biso   1.000  Hf
  Hf86     1.0000 0.22772  0.37386  0.25608  Biso   1.000  Hf
  Hf87     1.0000 0.23314  0.37136  0.74585  Biso   1.000  Hf
  Hf88     1.0000 0.22316  0.86689  0.23250  Biso   1.000  Hf
  Hf89     1.0000 0.23272  0.87336  0.74619  Biso   1.000  Hf
  Hf90     1.0000 0.73753  0.36737  0.25112  Biso   1.000  Hf
  Hf91     1.0000 0.73148  0.37445  0.75323  Biso   1.000  Hf
  Hf92     1.0000 0.72659  0.87054  0.25255  Biso   1.000  Hf
  Hf93     1.0000 0.73563  0.86834  0.75071  Biso   1.000  Hf
