data_image0
_cell_length_a       10.2119
_cell_length_b       10.3473
_cell_length_c       10.5047
_cell_angle_alpha    90
_cell_angle_beta     80
_cell_angle_gamma    90

_symmetry_space_group_name_H-M    "P 1"
_symmetry_int_tables_number       1

loop_
  _symmetry_equiv_pos_as_xyz
  'x, y, z'

loop_
  _atom_site_label
  _atom_site_occupancy
  _atom_site_fract_x
  _atom_site_fract_y
  _atom_site_fract_z
  _atom_site_thermal_displace_type
  _atom_site_B_iso_or_equiv
  _atom_site_type_symbol
  La1      1.0000 0.13296  0.01317  0.14170  Biso   1.000  La
  Hf1      1.0000 0.13122  0.01975  0.64790  Biso   1.000  Hf
  Hf2      1.0000 0.14128  0.52083  0.14245  Biso   1.000  Hf
  Hf3      1.0000 0.12978  0.52302  0.64780  Biso   1.000  Hf
  Hf4      1.0000 0.63697  0.01614  0.14404  Biso   1.000  Hf
  Hf5      1.0000 0.63276  0.02220  0.64997  Biso   1.000  Hf
  Hf6      1.0000 0.63870  0.51930  0.14473  Biso   1.000  Hf
  Hf7      1.0000 0.63317  0.52268  0.64639  Biso   1.000  Hf
  Hf8      1.0000 0.13584  0.22875  0.39893  Biso   1.000  Hf
  Hf9      1.0000 0.13006  0.23163  0.89635  Biso   1.000  Hf
  Hf10     1.0000 0.13482  0.72940  0.39811  Biso   1.000  Hf
  Hf11     1.0000 0.13235  0.72776  0.89481  Biso   1.000  Hf
  La2      1.0000 0.62785  0.23847  0.39112  Biso   1.000  La
  Hf12     1.0000 0.63147  0.22817  0.89811  Biso   1.000  Hf
  Hf13     1.0000 0.63263  0.72713  0.39571  Biso   1.000  Hf
  Hf14     1.0000 0.63344  0.72793  0.89498  Biso   1.000  Hf
  Hf15     1.0000 0.36094  0.26958  0.10541  Biso   1.000  Hf
  Hf16     1.0000 0.34688  0.27015  0.61119  Biso   1.000  Hf
  Hf17     1.0000 0.36575  0.76656  0.10123  Biso   1.000  Hf
  Hf18     1.0000 0.35469  0.77086  0.60492  Biso   1.000  Hf
  Hf19     1.0000 0.86146  0.27413  0.10013  Biso   1.000  Hf
  Hf20     1.0000 0.85585  0.27150  0.60611  Biso   1.000  Hf
  Hf21     1.0000 0.85751  0.76577  0.10314  Biso   1.000  Hf
  Hf22     1.0000 0.85447  0.77252  0.60400  Biso   1.000  Hf
  Hf23     1.0000 0.35152  0.48239  0.35303  Biso   1.000  Hf
  Hf24     1.0000 0.35553  0.47721  0.85488  Biso   1.000  Hf
  Hf25     1.0000 0.35701  0.97658  0.35450  Biso   1.000  Hf
  Hf26     1.0000 0.35604  0.97700  0.85336  Biso   1.000  Hf
  Hf27     1.0000 0.86394  0.48312  0.35361  Biso   1.000  Hf
  Hf28     1.0000 0.85131  0.47842  0.85312  Biso   1.000  Hf
  Hf29     1.0000 0.85020  0.97942  0.36123  Biso   1.000  Hf
  Hf30     1.0000 0.85425  0.97866  0.85633  Biso   1.000  Hf
  Hf31     1.0000 0.03750  0.19032  0.07515  Biso   1.000  Hf
  Hf32     1.0000 0.03107  0.17233  0.58711  Biso   1.000  Hf
  Hf33     1.0000 0.03762  0.67084  0.07850  Biso   1.000  Hf
  Hf34     1.0000 0.02749  0.66872  0.58105  Biso   1.000  Hf
  Hf35     1.0000 0.53767  0.17007  0.08265  Biso   1.000  Hf
  Hf36     1.0000 0.51705  0.16420  0.59755  Biso   1.000  Hf
  Hf37     1.0000 0.53857  0.66735  0.07753  Biso   1.000  Hf
  Hf38     1.0000 0.52805  0.66608  0.58038  Biso   1.000  Hf
  Hf39     1.0000 0.02113  0.08493  0.34781  Biso   1.000  Hf
  Hf40     1.0000 0.02750  0.08013  0.83513  Biso   1.000  Hf
  Hf41     1.0000 0.03541  0.58469  0.32776  Biso   1.000  Hf
  Hf42     1.0000 0.02529  0.58231  0.83059  Biso   1.000  Hf
  Hf43     1.0000 0.53351  0.05827  0.32725  Biso   1.000  Hf
  Hf44     1.0000 0.52992  0.07795  0.83518  Biso   1.000  Hf
  Hf45     1.0000 0.53242  0.57594  0.33083  Biso   1.000  Hf
  Hf46     1.0000 0.52808  0.58139  0.83063  Biso   1.000  Hf
  Hf47     1.0000 0.46614  0.41452  0.17381  Biso   1.000  Hf
  Hf48     1.0000 0.45964  0.41632  0.67080  Biso   1.000  Hf
  Hf49     1.0000 0.46010  0.91948  0.16201  Biso   1.000  Hf
  Hf50     1.0000 0.46002  0.91493  0.67229  Biso   1.000  Hf
  Hf51     1.0000 0.96935  0.42183  0.16810  Biso   1.000  Hf
  Hf52     1.0000 0.95719  0.42044  0.67133  Biso   1.000  Hf
  Hf53     1.0000 0.93944  0.91099  0.18202  Biso   1.000  Hf
  Hf54     1.0000 0.95788  0.91862  0.67294  Biso   1.000  Hf
  Hf55     1.0000 0.42813  0.32915  0.42759  Biso   1.000  Hf
  Hf56     1.0000 0.45900  0.33296  0.92321  Biso   1.000  Hf
  Hf57     1.0000 0.45633  0.82497  0.42130  Biso   1.000  Hf
  Hf58     1.0000 0.46531  0.83180  0.91873  Biso   1.000  Hf
  Hf59     1.0000 0.96183  0.33294  0.42079  Biso   1.000  Hf
  Hf60     1.0000 0.95402  0.33343  0.91585  Biso   1.000  Hf
  Hf61     1.0000 0.96147  0.83438  0.42352  Biso   1.000  Hf
  Hf62     1.0000 0.95972  0.83414  0.92473  Biso   1.000  Hf
  Hf63     1.0000 0.28107  0.13532  0.25018  Biso   1.000  Hf
  Hf64     1.0000 0.26448  0.12695  0.74282  Biso   1.000  Hf
  Hf65     1.0000 0.27591  0.62514  0.23692  Biso   1.000  Hf
  Hf66     1.0000 0.26857  0.62843  0.74055  Biso   1.000  Hf
  Hf67     1.0000 0.78157  0.12315  0.23109  Biso   1.000  Hf
  Hf68     1.0000 0.76904  0.12972  0.74502  Biso   1.000  Hf
  Hf69     1.0000 0.77243  0.63076  0.24034  Biso   1.000  Hf
  Hf70     1.0000 0.76850  0.62928  0.73939  Biso   1.000  Hf
  Hf71     1.0000 0.26822  0.11760  0.49569  Biso   1.000  Hf
  Hf72     1.0000 0.27649  0.12706  0.98191  Biso   1.000  Hf
  Hf73     1.0000 0.26851  0.62096  0.49130  Biso   1.000  Hf
  Hf74     1.0000 0.26771  0.61699  0.98902  Biso   1.000  Hf
  Hf75     1.0000 0.77292  0.11715  0.50289  Biso   1.000  Hf
  Hf76     1.0000 0.76661  0.11992  0.99064  Biso   1.000  Hf
  Hf77     1.0000 0.77183  0.62671  0.48876  Biso   1.000  Hf
  Hf78     1.0000 0.76681  0.61818  0.99000  Biso   1.000  Hf
  Hf79     1.0000 0.22891  0.37982  0.00765  Biso   1.000  Hf
  Hf80     1.0000 0.20567  0.38055  0.51497  Biso   1.000  Hf
  Hf81     1.0000 0.23085  0.86459  0.99632  Biso   1.000  Hf
  Hf82     1.0000 0.21784  0.87786  0.51244  Biso   1.000  Hf
  Hf83     1.0000 0.72325  0.37940  0.00583  Biso   1.000  Hf
  Hf84     1.0000 0.73116  0.39133  0.51443  Biso   1.000  Hf
  Hf85     1.0000 0.72708  0.87641  0.00755  Biso   1.000  Hf
  Hf86     1.0000 0.71592  0.87816  0.51127  Biso   1.000  Hf
  Hf87     1.0000 0.22013  0.37234  0.25845  Biso   1.000  Hf
  Hf88     1.0000 0.21680  0.37282  0.76177  Biso   1.000  Hf
  Hf89     1.0000 0.23297  0.85788  0.26412  Biso   1.000  Hf
  Hf90     1.0000 0.21694  0.87063  0.75788  Biso   1.000  Hf
  Hf91     1.0000 0.73798  0.38505  0.24649  Biso   1.000  Hf
  Hf92     1.0000 0.71632  0.37009  0.76052  Biso   1.000  Hf
  Hf93     1.0000 0.71048  0.86804  0.26184  Biso   1.000  Hf
  Hf94     1.0000 0.71938  0.87059  0.76026  Biso   1.000  Hf
