data_image0
_cell_length_a       10.1426
_cell_length_b       10.3028
_cell_length_c       10.4767
_cell_angle_alpha    90
_cell_angle_beta     90
_cell_angle_gamma    90

_symmetry_space_group_name_H-M    "P 1"
_symmetry_int_tables_number       1

loop_
  _symmetry_equiv_pos_as_xyz
  'x, y, z'

loop_
  _atom_site_label
  _atom_site_occupancy
  _atom_site_fract_x
  _atom_site_fract_y
  _atom_site_fract_z
  _atom_site_thermal_displace_type
  _atom_site_B_iso_or_equiv
  _atom_site_type_symbol
  La1      1.0000 0.13116  0.01249  0.16327  Biso   1.000  La
  Hf1      1.0000 0.14069  0.01536  0.67366  Biso   1.000  Hf
  Hf2      1.0000 0.13859  0.52016  0.17061  Biso   1.000  Hf
  Hf3      1.0000 0.13832  0.52270  0.67288  Biso   1.000  Hf
  Hf4      1.0000 0.14625  0.22962  0.41864  Biso   1.000  Hf
  Hf5      1.0000 0.13446  0.23231  0.91637  Biso   1.000  Hf
  Hf6      1.0000 0.13929  0.72766  0.42234  Biso   1.000  Hf
  Hf7      1.0000 0.13856  0.72743  0.92250  Biso   1.000  Hf
  Hf8      1.0000 0.35965  0.26906  0.16835  Biso   1.000  Hf
  Hf9      1.0000 0.35753  0.26961  0.66976  Biso   1.000  Hf
  Hf10     1.0000 0.36660  0.76610  0.17199  Biso   1.000  Hf
  Hf11     1.0000 0.35968  0.76763  0.67194  Biso   1.000  Hf
  Hf12     1.0000 0.36139  0.47874  0.42013  Biso   1.000  Hf
  Hf13     1.0000 0.35749  0.47751  0.92172  Biso   1.000  Hf
  Hf14     1.0000 0.36030  0.97640  0.42065  Biso   1.000  Hf
  Hf15     1.0000 0.36330  0.97856  0.92053  Biso   1.000  Hf
  Hf16     1.0000 0.64018  0.02023  0.08101  Biso   1.000  Hf
  Hf17     1.0000 0.63019  0.01578  0.58180  Biso   1.000  Hf
  Hf18     1.0000 0.63783  0.51794  0.07750  Biso   1.000  Hf
  Hf19     1.0000 0.63854  0.51776  0.57783  Biso   1.000  Hf
  Hf20     1.0000 0.63515  0.22940  0.32798  Biso   1.000  Hf
  Hf21     1.0000 0.63224  0.22885  0.83082  Biso   1.000  Hf
  Hf22     1.0000 0.63994  0.72660  0.33002  Biso   1.000  Hf
  Hf23     1.0000 0.63567  0.72676  0.82685  Biso   1.000  Hf
  Hf24     1.0000 0.85818  0.27287  0.07514  Biso   1.000  Hf
  La2      1.0000 0.86661  0.25904  0.58588  Biso   1.000  La
  Hf25     1.0000 0.85748  0.76668  0.07810  Biso   1.000  Hf
  Hf26     1.0000 0.86056  0.77000  0.57943  Biso   1.000  Hf
  Hf27     1.0000 0.85996  0.47800  0.32616  Biso   1.000  Hf
  Hf28     1.0000 0.85809  0.48287  0.82779  Biso   1.000  Hf
  Hf29     1.0000 0.85201  0.97806  0.33349  Biso   1.000  Hf
  Hf30     1.0000 0.85772  0.97661  0.83185  Biso   1.000  Hf
  Hf31     1.0000 0.03371  0.19005  0.08019  Biso   1.000  Hf
  Hf32     1.0000 0.06987  0.17872  0.59675  Biso   1.000  Hf
  Hf33     1.0000 0.03667  0.67448  0.09012  Biso   1.000  Hf
  Hf34     1.0000 0.03684  0.67487  0.58947  Biso   1.000  Hf
  Hf35     1.0000 0.01820  0.08854  0.35617  Biso   1.000  Hf
  Hf36     1.0000 0.03077  0.07871  0.83859  Biso   1.000  Hf
  Hf37     1.0000 0.03238  0.58456  0.33517  Biso   1.000  Hf
  Hf38     1.0000 0.03409  0.58136  0.84153  Biso   1.000  Hf
  Hf39     1.0000 0.46753  0.41224  0.08173  Biso   1.000  Hf
  Hf40     1.0000 0.46686  0.41262  0.58192  Biso   1.000  Hf
  Hf41     1.0000 0.47113  0.91487  0.08493  Biso   1.000  Hf
  Hf42     1.0000 0.46467  0.90934  0.58222  Biso   1.000  Hf
  Hf43     1.0000 0.46610  0.33611  0.33113  Biso   1.000  Hf
  Hf44     1.0000 0.46056  0.33234  0.83368  Biso   1.000  Hf
  Hf45     1.0000 0.47210  0.83437  0.33331  Biso   1.000  Hf
  Hf46     1.0000 0.46854  0.83579  0.82988  Biso   1.000  Hf
  Hf47     1.0000 0.27967  0.12759  0.29993  Biso   1.000  Hf
  Hf48     1.0000 0.27299  0.12190  0.79244  Biso   1.000  Hf
  Hf49     1.0000 0.27570  0.62027  0.29530  Biso   1.000  Hf
  Hf50     1.0000 0.27505  0.62406  0.79674  Biso   1.000  Hf
  Hf51     1.0000 0.28469  0.13417  0.03340  Biso   1.000  Hf
  Hf52     1.0000 0.28611  0.12338  0.54312  Biso   1.000  Hf
  Hf53     1.0000 0.27504  0.62001  0.04743  Biso   1.000  Hf
  Hf54     1.0000 0.27527  0.62603  0.54492  Biso   1.000  Hf
  Hf55     1.0000 0.22568  0.37435  0.29059  Biso   1.000  Hf
  Hf56     1.0000 0.22109  0.37488  0.79239  Biso   1.000  Hf
  Hf57     1.0000 0.23363  0.86195  0.30111  Biso   1.000  Hf
  Hf58     1.0000 0.22444  0.87109  0.79424  Biso   1.000  Hf
  Hf59     1.0000 0.22289  0.37774  0.04206  Biso   1.000  Hf
  Hf60     1.0000 0.22578  0.37870  0.54176  Biso   1.000  Hf
  Hf61     1.0000 0.24483  0.86196  0.03534  Biso   1.000  Hf
  Hf62     1.0000 0.22291  0.87583  0.54612  Biso   1.000  Hf
  Hf63     1.0000 0.53151  0.16389  0.16681  Biso   1.000  Hf
  Hf64     1.0000 0.52729  0.16469  0.66649  Biso   1.000  Hf
  Hf65     1.0000 0.53306  0.65937  0.16893  Biso   1.000  Hf
  Hf66     1.0000 0.52994  0.66039  0.66766  Biso   1.000  Hf
  Hf67     1.0000 0.52503  0.08580  0.41826  Biso   1.000  Hf
  Hf68     1.0000 0.53196  0.08303  0.91832  Biso   1.000  Hf
  Hf69     1.0000 0.53084  0.58583  0.41818  Biso   1.000  Hf
  Hf70     1.0000 0.52742  0.58478  0.91823  Biso   1.000  Hf
  Hf71     1.0000 0.96105  0.42699  0.15574  Biso   1.000  Hf
  Hf72     1.0000 0.96355  0.44045  0.66332  Biso   1.000  Hf
  Hf73     1.0000 0.93558  0.91915  0.16510  Biso   1.000  Hf
  Hf74     1.0000 0.96141  0.92446  0.66216  Biso   1.000  Hf
  Hf75     1.0000 0.97873  0.33946  0.40033  Biso   1.000  Hf
  Hf76     1.0000 0.95700  0.32929  0.90129  Biso   1.000  Hf
  Hf77     1.0000 0.96614  0.83286  0.41326  Biso   1.000  Hf
  Hf78     1.0000 0.96617  0.83139  0.91749  Biso   1.000  Hf
  Hf79     1.0000 0.77349  0.12241  0.95870  Biso   1.000  Hf
  Hf80     1.0000 0.75679  0.11332  0.45228  Biso   1.000  Hf
  Hf81     1.0000 0.76974  0.62201  0.95392  Biso   1.000  Hf
  Hf82     1.0000 0.77707  0.62284  0.45531  Biso   1.000  Hf
  Hf83     1.0000 0.77375  0.12825  0.20692  Biso   1.000  Hf
  Hf84     1.0000 0.75438  0.10999  0.71780  Biso   1.000  Hf
  Hf85     1.0000 0.77485  0.62577  0.20432  Biso   1.000  Hf
  Hf86     1.0000 0.77386  0.62738  0.70383  Biso   1.000  Hf
  Hf87     1.0000 0.71917  0.37363  0.95517  Biso   1.000  Hf
  Hf88     1.0000 0.71920  0.37825  0.44571  Biso   1.000  Hf
  Hf89     1.0000 0.72175  0.87181  0.95541  Biso   1.000  Hf
  Hf90     1.0000 0.72240  0.86905  0.45844  Biso   1.000  Hf
  Hf91     1.0000 0.72301  0.37554  0.20288  Biso   1.000  Hf
  Hf92     1.0000 0.71277  0.38237  0.71296  Biso   1.000  Hf
  Hf93     1.0000 0.71089  0.87427  0.20854  Biso   1.000  Hf
  Hf94     1.0000 0.72425  0.86903  0.70525  Biso   1.000  Hf
