data_image0
_cell_length_a       10.0627
_cell_length_b       10.3978
_cell_length_c       10.1056
_cell_angle_alpha    90
_cell_angle_beta     90
_cell_angle_gamma    90

_symmetry_space_group_name_H-M    "P 1"
_symmetry_int_tables_number       1

loop_
  _symmetry_equiv_pos_as_xyz
  'x, y, z'

loop_
  _atom_site_label
  _atom_site_occupancy
  _atom_site_fract_x
  _atom_site_fract_y
  _atom_site_fract_z
  _atom_site_thermal_displace_type
  _atom_site_B_iso_or_equiv
  _atom_site_type_symbol
  La1      1.0000 0.12271  0.00612  0.11893  Biso   1.000  La
  Hf1      1.0000 0.12753  0.01299  0.62396  Biso   1.000  Hf
  Hf2      1.0000 0.13232  0.51556  0.12400  Biso   1.000  Hf
  La2      1.0000 0.11806  0.50355  0.61890  Biso   1.000  La
  Hf3      1.0000 0.63282  0.01385  0.12553  Biso   1.000  Hf
  Hf4      1.0000 0.62636  0.01291  0.62553  Biso   1.000  Hf
  Hf5      1.0000 0.63116  0.51548  0.12556  Biso   1.000  Hf
  Hf6      1.0000 0.62814  0.51126  0.62550  Biso   1.000  Hf
  Hf7      1.0000 0.13426  0.23175  0.37620  Biso   1.000  Hf
  Hf8      1.0000 0.12808  0.23168  0.87099  Biso   1.000  Hf
  Hf9      1.0000 0.13290  0.73426  0.37101  Biso   1.000  Hf
  Hf10     1.0000 0.12961  0.72917  0.87618  Biso   1.000  Hf
  Hf11     1.0000 0.63186  0.23029  0.37327  Biso   1.000  Hf
  Hf12     1.0000 0.62509  0.22815  0.87822  Biso   1.000  Hf
  Hf13     1.0000 0.62988  0.73072  0.37823  Biso   1.000  Hf
  Hf14     1.0000 0.62720  0.72770  0.87325  Biso   1.000  Hf
  Hf15     1.0000 0.36347  0.26505  0.12505  Biso   1.000  Hf
  Hf16     1.0000 0.36488  0.25882  0.62244  Biso   1.000  Hf
  Hf17     1.0000 0.36968  0.76140  0.12245  Biso   1.000  Hf
  Hf18     1.0000 0.35881  0.76249  0.62503  Biso   1.000  Hf
  Hf19     1.0000 0.86212  0.26660  0.12658  Biso   1.000  Hf
  Hf20     1.0000 0.85579  0.26258  0.62748  Biso   1.000  Hf
  Hf21     1.0000 0.86059  0.76513  0.12748  Biso   1.000  Hf
  Hf22     1.0000 0.85747  0.76404  0.62655  Biso   1.000  Hf
  Hf23     1.0000 0.36540  0.48207  0.37124  Biso   1.000  Hf
  Hf24     1.0000 0.35845  0.47894  0.87414  Biso   1.000  Hf
  Hf25     1.0000 0.36325  0.98151  0.37417  Biso   1.000  Hf
  Hf26     1.0000 0.36073  0.97950  0.87122  Biso   1.000  Hf
  Hf27     1.0000 0.85964  0.48152  0.37283  Biso   1.000  Hf
  Hf28     1.0000 0.85378  0.47778  0.88247  Biso   1.000  Hf
  Hf29     1.0000 0.85857  0.98037  0.38251  Biso   1.000  Hf
  Hf30     1.0000 0.85497  0.97892  0.87279  Biso   1.000  Hf
  Hf31     1.0000 0.02465  0.19495  0.20707  Biso   1.000  Hf
  Hf32     1.0000 0.03370  0.18755  0.68492  Biso   1.000  Hf
  Hf33     1.0000 0.03850  0.69015  0.18495  Biso   1.000  Hf
  Hf34     1.0000 0.01997  0.69237  0.70707  Biso   1.000  Hf
  Hf35     1.0000 0.53598  0.18273  0.19198  Biso   1.000  Hf
  Hf36     1.0000 0.52851  0.17651  0.69874  Biso   1.000  Hf
  Hf37     1.0000 0.53330  0.67908  0.19876  Biso   1.000  Hf
  Hf38     1.0000 0.53132  0.68015  0.69196  Biso   1.000  Hf
  Hf39     1.0000 0.02936  0.06662  0.44269  Biso   1.000  Hf
  Hf40     1.0000 0.02223  0.07079  0.91642  Biso   1.000  Hf
  Hf41     1.0000 0.02703  0.57338  0.41646  Biso   1.000  Hf
  Hf42     1.0000 0.02469  0.56404  0.94270  Biso   1.000  Hf
  Hf43     1.0000 0.53018  0.06548  0.44739  Biso   1.000  Hf
  Hf44     1.0000 0.52902  0.06031  0.94403  Biso   1.000  Hf
  Hf45     1.0000 0.53380  0.56290  0.44408  Biso   1.000  Hf
  Hf46     1.0000 0.52552  0.56290  0.94737  Biso   1.000  Hf
  Hf47     1.0000 0.46458  0.43056  0.19547  Biso   1.000  Hf
  Hf48     1.0000 0.45944  0.43080  0.69358  Biso   1.000  Hf
  Hf49     1.0000 0.46424  0.93335  0.19360  Biso   1.000  Hf
  Hf50     1.0000 0.45990  0.92801  0.69544  Biso   1.000  Hf
  Hf51     1.0000 0.95762  0.43799  0.19121  Biso   1.000  Hf
  Hf52     1.0000 0.93724  0.42222  0.71125  Biso   1.000  Hf
  Hf53     1.0000 0.94198  0.92482  0.21124  Biso   1.000  Hf
  Hf54     1.0000 0.95296  0.93541  0.69116  Biso   1.000  Hf
  Hf55     1.0000 0.47022  0.31559  0.44651  Biso   1.000  Hf
  Hf56     1.0000 0.46019  0.31422  0.94775  Biso   1.000  Hf
  Hf57     1.0000 0.46499  0.81680  0.44778  Biso   1.000  Hf
  Hf58     1.0000 0.46556  0.81301  0.94648  Biso   1.000  Hf
  Hf59     1.0000 0.97036  0.32659  0.45720  Biso   1.000  Hf
  Hf60     1.0000 0.95854  0.31331  0.95206  Biso   1.000  Hf
  Hf61     1.0000 0.96335  0.81589  0.45207  Biso   1.000  Hf
  Hf62     1.0000 0.96573  0.82402  0.95719  Biso   1.000  Hf
  Hf63     1.0000 0.27805  0.12588  0.25514  Biso   1.000  Hf
  Hf64     1.0000 0.26351  0.10946  0.74524  Biso   1.000  Hf
  Hf65     1.0000 0.26831  0.61204  0.24526  Biso   1.000  Hf
  Hf66     1.0000 0.27338  0.62329  0.75511  Biso   1.000  Hf
  Hf67     1.0000 0.76587  0.11397  0.25085  Biso   1.000  Hf
  Hf68     1.0000 0.76243  0.11429  0.74875  Biso   1.000  Hf
  Hf69     1.0000 0.76723  0.61686  0.24876  Biso   1.000  Hf
  Hf70     1.0000 0.76120  0.61139  0.75081  Biso   1.000  Hf
  Hf71     1.0000 0.26561  0.12555  0.50044  Biso   1.000  Hf
  Hf72     1.0000 0.26721  0.13306  0.98958  Biso   1.000  Hf
  Hf73     1.0000 0.27203  0.63565  0.48961  Biso   1.000  Hf
  Hf74     1.0000 0.27040  0.62812  0.00048  Biso   1.000  Hf
  Hf75     1.0000 0.76291  0.13015  0.49978  Biso   1.000  Hf
  Hf76     1.0000 0.76304  0.12629  0.99969  Biso   1.000  Hf
  Hf77     1.0000 0.76783  0.62892  0.49969  Biso   1.000  Hf
  Hf78     1.0000 0.75825  0.62755  0.99978  Biso   1.000  Hf
  Hf79     1.0000 0.24208  0.36983  0.48797  Biso   1.000  Hf
  Hf80     1.0000 0.22133  0.37933  0.99742  Biso   1.000  Hf
  Hf81     1.0000 0.22612  0.88191  0.49743  Biso   1.000  Hf
  Hf82     1.0000 0.23741  0.86726  0.98794  Biso   1.000  Hf
  Hf83     1.0000 0.72830  0.37846  0.50037  Biso   1.000  Hf
  Hf84     1.0000 0.72822  0.38171  0.00191  Biso   1.000  Hf
  Hf85     1.0000 0.72356  0.87914  0.50188  Biso   1.000  Hf
  Hf86     1.0000 0.73308  0.88103  0.00036  Biso   1.000  Hf
  Hf87     1.0000 0.22506  0.36780  0.24461  Biso   1.000  Hf
  Hf88     1.0000 0.23909  0.35259  0.75275  Biso   1.000  Hf
  Hf89     1.0000 0.24390  0.85518  0.25277  Biso   1.000  Hf
  Hf90     1.0000 0.22036  0.86522  0.74458  Biso   1.000  Hf
  Hf91     1.0000 0.72733  0.36619  0.25060  Biso   1.000  Hf
  Hf92     1.0000 0.71216  0.36173  0.75163  Biso   1.000  Hf
  Hf93     1.0000 0.71695  0.86430  0.25166  Biso   1.000  Hf
  Hf94     1.0000 0.72265  0.86362  0.75057  Biso   1.000  Hf
