data_image0
_cell_length_a       10.093
_cell_length_b       10.336
_cell_length_c       10.4899
_cell_angle_alpha    90
_cell_angle_beta     90
_cell_angle_gamma    90

_symmetry_space_group_name_H-M    "P 1"
_symmetry_int_tables_number       1

loop_
  _symmetry_equiv_pos_as_xyz
  'x, y, z'

loop_
  _atom_site_label
  _atom_site_occupancy
  _atom_site_fract_x
  _atom_site_fract_y
  _atom_site_fract_z
  _atom_site_thermal_displace_type
  _atom_site_B_iso_or_equiv
  _atom_site_type_symbol
  La1      1.0000 0.13394  0.01329  0.16092  Biso   1.000  La
  Hf1      1.0000 0.13878  0.02150  0.67346  Biso   1.000  Hf
  Hf2      1.0000 0.13742  0.51926  0.17044  Biso   1.000  Hf
  Hf3      1.0000 0.13981  0.52106  0.67100  Biso   1.000  Hf
  Hf4      1.0000 0.13822  0.23085  0.42355  Biso   1.000  Hf
  Hf5      1.0000 0.13786  0.23451  0.91916  Biso   1.000  Hf
  Hf6      1.0000 0.13922  0.72608  0.42121  Biso   1.000  Hf
  Hf7      1.0000 0.14001  0.72771  0.91674  Biso   1.000  Hf
  Hf8      1.0000 0.36036  0.27052  0.17070  Biso   1.000  Hf
  Hf9      1.0000 0.36095  0.27038  0.67339  Biso   1.000  Hf
  Hf10     1.0000 0.36051  0.76281  0.16094  Biso   1.000  Hf
  Hf11     1.0000 0.36157  0.77141  0.66821  Biso   1.000  Hf
  Hf12     1.0000 0.35829  0.47566  0.42206  Biso   1.000  Hf
  Hf13     1.0000 0.36234  0.47798  0.92059  Biso   1.000  Hf
  Hf14     1.0000 0.35828  0.98617  0.42456  Biso   1.000  Hf
  Hf15     1.0000 0.36639  0.97941  0.91673  Biso   1.000  Hf
  Hf16     1.0000 0.63912  0.02427  0.07884  Biso   1.000  Hf
  Hf17     1.0000 0.64008  0.02344  0.58326  Biso   1.000  Hf
  Hf18     1.0000 0.63822  0.51958  0.07644  Biso   1.000  Hf
  Hf19     1.0000 0.63778  0.51666  0.58083  Biso   1.000  Hf
  Hf20     1.0000 0.63745  0.23114  0.32954  Biso   1.000  Hf
  Hf21     1.0000 0.63976  0.23005  0.82901  Biso   1.000  Hf
  La2      1.0000 0.63382  0.73717  0.33915  Biso   1.000  La
  Hf22     1.0000 0.63879  0.72963  0.82655  Biso   1.000  Hf
  Hf23     1.0000 0.85822  0.27470  0.07792  Biso   1.000  Hf
  Hf24     1.0000 0.86229  0.27315  0.57939  Biso   1.000  Hf
  Hf25     1.0000 0.85817  0.76441  0.07553  Biso   1.000  Hf
  Hf26     1.0000 0.86640  0.77174  0.58326  Biso   1.000  Hf
  Hf27     1.0000 0.86033  0.47990  0.32931  Biso   1.000  Hf
  Hf28     1.0000 0.86091  0.48076  0.82661  Biso   1.000  Hf
  Hf29     1.0000 0.86052  0.98748  0.33885  Biso   1.000  Hf
  Hf30     1.0000 0.86155  0.97976  0.83179  Biso   1.000  Hf
  Hf31     1.0000 0.03333  0.18894  0.08226  Biso   1.000  Hf
  Hf32     1.0000 0.03402  0.17076  0.59089  Biso   1.000  Hf
  Hf33     1.0000 0.03685  0.67237  0.08578  Biso   1.000  Hf
  Hf34     1.0000 0.03836  0.66957  0.58787  Biso   1.000  Hf
  Hf35     1.0000 0.02775  0.08658  0.35002  Biso   1.000  Hf
  Hf36     1.0000 0.03595  0.08176  0.84038  Biso   1.000  Hf
  Hf37     1.0000 0.03401  0.58241  0.33527  Biso   1.000  Hf
  Hf38     1.0000 0.03384  0.58243  0.83412  Biso   1.000  Hf
  Hf39     1.0000 0.46619  0.41489  0.08373  Biso   1.000  Hf
  Hf40     1.0000 0.46351  0.41567  0.59051  Biso   1.000  Hf
  Hf41     1.0000 0.46942  0.91776  0.08559  Biso   1.000  Hf
  Hf42     1.0000 0.46972  0.91596  0.58229  Biso   1.000  Hf
  Hf43     1.0000 0.46261  0.32848  0.33676  Biso   1.000  Hf
  Hf44     1.0000 0.46602  0.33003  0.83675  Biso   1.000  Hf
  Hf45     1.0000 0.43830  0.83143  0.33288  Biso   1.000  Hf
  Hf46     1.0000 0.46785  0.83331  0.83043  Biso   1.000  Hf
  Hf47     1.0000 0.28027  0.12954  0.30275  Biso   1.000  Hf
  Hf48     1.0000 0.27594  0.12366  0.79354  Biso   1.000  Hf
  Hf49     1.0000 0.27643  0.61932  0.29127  Biso   1.000  Hf
  Hf50     1.0000 0.27737  0.62443  0.79209  Biso   1.000  Hf
  Hf51     1.0000 0.28546  0.13290  0.03487  Biso   1.000  Hf
  Hf52     1.0000 0.27467  0.12723  0.54822  Biso   1.000  Hf
  Hf53     1.0000 0.27209  0.61843  0.04110  Biso   1.000  Hf
  Hf54     1.0000 0.27725  0.62515  0.54309  Biso   1.000  Hf
  Hf55     1.0000 0.22093  0.37308  0.29372  Biso   1.000  Hf
  Hf56     1.0000 0.22490  0.37581  0.79458  Biso   1.000  Hf
  Hf57     1.0000 0.22625  0.86385  0.29680  Biso   1.000  Hf
  Hf58     1.0000 0.22548  0.87412  0.79011  Biso   1.000  Hf
  Hf59     1.0000 0.22343  0.37629  0.04431  Biso   1.000  Hf
  Hf60     1.0000 0.22264  0.37564  0.54632  Biso   1.000  Hf
  Hf61     1.0000 0.24204  0.86135  0.02904  Biso   1.000  Hf
  Hf62     1.0000 0.22479  0.87773  0.54453  Biso   1.000  Hf
  Hf63     1.0000 0.53406  0.16812  0.16468  Biso   1.000  Hf
  Hf64     1.0000 0.53390  0.16880  0.66575  Biso   1.000  Hf
  Hf65     1.0000 0.52786  0.66404  0.14985  Biso   1.000  Hf
  Hf66     1.0000 0.53600  0.66949  0.65958  Biso   1.000  Hf
  Hf67     1.0000 0.53701  0.07779  0.41404  Biso   1.000  Hf
  Hf68     1.0000 0.53839  0.08146  0.91201  Biso   1.000  Hf
  Hf69     1.0000 0.53334  0.56140  0.41772  Biso   1.000  Hf
  Hf70     1.0000 0.53406  0.58032  0.90906  Biso   1.000  Hf
  Hf71     1.0000 0.96259  0.42182  0.16331  Biso   1.000  Hf
  Hf72     1.0000 0.96604  0.42100  0.66331  Biso   1.000  Hf
  Hf73     1.0000 0.93877  0.91842  0.16750  Biso   1.000  Hf
  Hf74     1.0000 0.96787  0.91773  0.66965  Biso   1.000  Hf
  Hf75     1.0000 0.96625  0.33562  0.41633  Biso   1.000  Hf
  Hf76     1.0000 0.96358  0.33555  0.90957  Biso   1.000  Hf
  Hf77     1.0000 0.96971  0.83281  0.41452  Biso   1.000  Hf
  Hf78     1.0000 0.96971  0.83529  0.91778  Biso   1.000  Hf
  Hf79     1.0000 0.77725  0.12599  0.95692  Biso   1.000  Hf
  Hf80     1.0000 0.77209  0.13199  0.45887  Biso   1.000  Hf
  Hf81     1.0000 0.77469  0.62391  0.95179  Biso   1.000  Hf
  Hf82     1.0000 0.78547  0.61759  0.46508  Biso   1.000  Hf
  Hf83     1.0000 0.77653  0.13109  0.20867  Biso   1.000  Hf
  Hf84     1.0000 0.77738  0.12672  0.70790  Biso   1.000  Hf
  Hf85     1.0000 0.78020  0.62092  0.19733  Biso   1.000  Hf
  Hf86     1.0000 0.77596  0.62749  0.70645  Biso   1.000  Hf
  Hf87     1.0000 0.72266  0.37547  0.95370  Biso   1.000  Hf
  Hf88     1.0000 0.72349  0.37414  0.45567  Biso   1.000  Hf
  Hf89     1.0000 0.72479  0.87343  0.95547  Biso   1.000  Hf
  Hf90     1.0000 0.74221  0.88900  0.47094  Biso   1.000  Hf
  Hf91     1.0000 0.72091  0.37733  0.20626  Biso   1.000  Hf
  Hf92     1.0000 0.72487  0.37534  0.70542  Biso   1.000  Hf
  Hf93     1.0000 0.72581  0.88670  0.20318  Biso   1.000  Hf
  Hf94     1.0000 0.72549  0.87704  0.70988  Biso   1.000  Hf
