data_image0
_cell_length_a       10.187
_cell_length_b       10.3525
_cell_length_c       10.4536
_cell_angle_alpha    90
_cell_angle_beta     80
_cell_angle_gamma    90

_symmetry_space_group_name_H-M    "P 1"
_symmetry_int_tables_number       1

loop_
  _symmetry_equiv_pos_as_xyz
  'x, y, z'

loop_
  _atom_site_label
  _atom_site_occupancy
  _atom_site_fract_x
  _atom_site_fract_y
  _atom_site_fract_z
  _atom_site_thermal_displace_type
  _atom_site_B_iso_or_equiv
  _atom_site_type_symbol
  Hf1      1.0000 0.11805  0.00353  0.13431  Biso   1.000  Hf
  Hf2      1.0000 0.12423  0.02233  0.65645  Biso   1.000  Hf
  Hf3      1.0000 0.14193  0.52242  0.14512  Biso   1.000  Hf
  Hf4      1.0000 0.12978  0.52248  0.64582  Biso   1.000  Hf
  Hf5      1.0000 0.64183  0.01997  0.14426  Biso   1.000  Hf
  Hf6      1.0000 0.62558  0.02010  0.64832  Biso   1.000  Hf
  Hf7      1.0000 0.64432  0.52203  0.14426  Biso   1.000  Hf
  Hf8      1.0000 0.62863  0.52356  0.64871  Biso   1.000  Hf
  La1      1.0000 0.12014  0.24128  0.39625  Biso   1.000  La
  Hf9      1.0000 0.12636  0.22986  0.90339  Biso   1.000  Hf
  Hf10     1.0000 0.13705  0.72930  0.39538  Biso   1.000  Hf
  Hf11     1.0000 0.12817  0.72819  0.89595  Biso   1.000  Hf
  Hf12     1.0000 0.63889  0.23288  0.39742  Biso   1.000  Hf
  Hf13     1.0000 0.63083  0.22628  0.89832  Biso   1.000  Hf
  Hf14     1.0000 0.63561  0.73041  0.39918  Biso   1.000  Hf
  Hf15     1.0000 0.62818  0.72809  0.89587  Biso   1.000  Hf
  Hf16     1.0000 0.37656  0.28595  0.08579  Biso   1.000  Hf
  Hf17     1.0000 0.35296  0.27163  0.60879  Biso   1.000  Hf
  Hf18     1.0000 0.36718  0.77096  0.10065  Biso   1.000  Hf
  Hf19     1.0000 0.35336  0.77184  0.60597  Biso   1.000  Hf
  Hf20     1.0000 0.86386  0.27301  0.10641  Biso   1.000  Hf
  Hf21     1.0000 0.84310  0.27040  0.61308  Biso   1.000  Hf
  Hf22     1.0000 0.86018  0.76450  0.10038  Biso   1.000  Hf
  Hf23     1.0000 0.85581  0.77098  0.60543  Biso   1.000  Hf
  Hf24     1.0000 0.36555  0.48152  0.35328  Biso   1.000  Hf
  Hf25     1.0000 0.34827  0.48399  0.84993  Biso   1.000  Hf
  La2      1.0000 0.35902  0.98956  0.35759  Biso   1.000  La
  Hf26     1.0000 0.35437  0.97949  0.85852  Biso   1.000  Hf
  Hf27     1.0000 0.85460  0.48463  0.35616  Biso   1.000  Hf
  Hf28     1.0000 0.85303  0.47755  0.85436  Biso   1.000  Hf
  Hf29     1.0000 0.86006  0.97834  0.35456  Biso   1.000  Hf
  Hf30     1.0000 0.85333  0.97546  0.85717  Biso   1.000  Hf
  Hf31     1.0000 0.03969  0.17454  0.08575  Biso   1.000  Hf
  Hf32     1.0000 0.00847  0.16480  0.60131  Biso   1.000  Hf
  Hf33     1.0000 0.03960  0.67188  0.08232  Biso   1.000  Hf
  Hf34     1.0000 0.02845  0.66859  0.58033  Biso   1.000  Hf
  Hf35     1.0000 0.53645  0.17210  0.08277  Biso   1.000  Hf
  Hf36     1.0000 0.52907  0.17166  0.58363  Biso   1.000  Hf
  Hf37     1.0000 0.54281  0.67129  0.08059  Biso   1.000  Hf
  Hf38     1.0000 0.53126  0.67321  0.58619  Biso   1.000  Hf
  Hf39     1.0000 0.04818  0.05277  0.32034  Biso   1.000  Hf
  Hf40     1.0000 0.02476  0.07314  0.84573  Biso   1.000  Hf
  Hf41     1.0000 0.03957  0.57123  0.33458  Biso   1.000  Hf
  Hf42     1.0000 0.02733  0.57701  0.83343  Biso   1.000  Hf
  Hf43     1.0000 0.55596  0.07961  0.32635  Biso   1.000  Hf
  Hf44     1.0000 0.52221  0.08073  0.83642  Biso   1.000  Hf
  Hf45     1.0000 0.54038  0.57696  0.33378  Biso   1.000  Hf
  Hf46     1.0000 0.52531  0.57962  0.83425  Biso   1.000  Hf
  Hf47     1.0000 0.47441  0.42441  0.16618  Biso   1.000  Hf
  Hf48     1.0000 0.45336  0.42491  0.66991  Biso   1.000  Hf
  Hf49     1.0000 0.47477  0.92081  0.15247  Biso   1.000  Hf
  Hf50     1.0000 0.45450  0.92418  0.67072  Biso   1.000  Hf
  Hf51     1.0000 0.96765  0.41948  0.17234  Biso   1.000  Hf
  Hf52     1.0000 0.95427  0.42010  0.66865  Biso   1.000  Hf
  Hf53     1.0000 0.95016  0.92424  0.15507  Biso   1.000  Hf
  Hf54     1.0000 0.95566  0.91819  0.67379  Biso   1.000  Hf
  Hf55     1.0000 0.45620  0.32119  0.41542  Biso   1.000  Hf
  Hf56     1.0000 0.45749  0.33610  0.91538  Biso   1.000  Hf
  Hf57     1.0000 0.46078  0.82105  0.42382  Biso   1.000  Hf
  Hf58     1.0000 0.45316  0.82521  0.91572  Biso   1.000  Hf
  Hf59     1.0000 0.92549  0.32683  0.42715  Biso   1.000  Hf
  Hf60     1.0000 0.95235  0.32754  0.92043  Biso   1.000  Hf
  Hf61     1.0000 0.95766  0.82434  0.41579  Biso   1.000  Hf
  Hf62     1.0000 0.95240  0.82347  0.91820  Biso   1.000  Hf
  Hf63     1.0000 0.26481  0.13113  0.75863  Biso   1.000  Hf
  Hf64     1.0000 0.27897  0.62725  0.23983  Biso   1.000  Hf
  Hf65     1.0000 0.26556  0.62939  0.74094  Biso   1.000  Hf
  Hf66     1.0000 0.78714  0.13249  0.24078  Biso   1.000  Hf
  Hf67     1.0000 0.75952  0.12632  0.74716  Biso   1.000  Hf
  Hf68     1.0000 0.77728  0.62977  0.24042  Biso   1.000  Hf
  Hf69     1.0000 0.76783  0.62888  0.74252  Biso   1.000  Hf
  Hf70     1.0000 0.25748  0.12809  0.52026  Biso   1.000  Hf
  Hf71     1.0000 0.27974  0.12021  0.01400  Biso   1.000  Hf
  Hf72     1.0000 0.27283  0.62510  0.48972  Biso   1.000  Hf
  Hf73     1.0000 0.26416  0.62174  0.99169  Biso   1.000  Hf
  Hf74     1.0000 0.76848  0.11786  0.49428  Biso   1.000  Hf
  Hf75     1.0000 0.76219  0.11965  0.99467  Biso   1.000  Hf
  Hf76     1.0000 0.77083  0.62216  0.49277  Biso   1.000  Hf
  Hf77     1.0000 0.76571  0.61853  0.99089  Biso   1.000  Hf
  Hf78     1.0000 0.22843  0.38367  0.00115  Biso   1.000  Hf
  Hf79     1.0000 0.22974  0.39242  0.51281  Biso   1.000  Hf
  Hf80     1.0000 0.22920  0.87665  0.00161  Biso   1.000  Hf
  Hf81     1.0000 0.20784  0.87367  0.51898  Biso   1.000  Hf
  Hf82     1.0000 0.72949  0.37884  0.00902  Biso   1.000  Hf
  Hf83     1.0000 0.70301  0.38355  0.51574  Biso   1.000  Hf
  Hf84     1.0000 0.73040  0.87701  0.00613  Biso   1.000  Hf
  Hf85     1.0000 0.72047  0.88001  0.51042  Biso   1.000  Hf
  Hf86     1.0000 0.24348  0.37086  0.24091  Biso   1.000  Hf
  Hf87     1.0000 0.21244  0.36982  0.76038  Biso   1.000  Hf
  Hf88     1.0000 0.21817  0.86241  0.24446  Biso   1.000  Hf
  Hf89     1.0000 0.21769  0.87029  0.76279  Biso   1.000  Hf
  Hf90     1.0000 0.72473  0.37313  0.25923  Biso   1.000  Hf
  Hf91     1.0000 0.71304  0.36994  0.76467  Biso   1.000  Hf
  Hf92     1.0000 0.72588  0.86915  0.26003  Biso   1.000  Hf
  Hf93     1.0000 0.71483  0.86981  0.76066  Biso   1.000  Hf
