data_image0
_cell_length_a       10.1139
_cell_length_b       10.2308
_cell_length_c       10.1076
_cell_angle_alpha    90
_cell_angle_beta     90
_cell_angle_gamma    90

_symmetry_space_group_name_H-M    "P 1"
_symmetry_int_tables_number       1

loop_
  _symmetry_equiv_pos_as_xyz
  'x, y, z'

loop_
  _atom_site_label
  _atom_site_occupancy
  _atom_site_fract_x
  _atom_site_fract_y
  _atom_site_fract_z
  _atom_site_thermal_displace_type
  _atom_site_B_iso_or_equiv
  _atom_site_type_symbol
  La1      1.0000 0.12620  0.99985  0.12517  Biso   1.000  La
  Hf1      1.0000 0.12633  0.00000  0.62523  Biso   1.000  Hf
  Hf2      1.0000 0.12603  0.49987  0.12521  Biso   1.000  Hf
  La2      1.0000 0.12607  0.49998  0.62520  Biso   1.000  La
  Hf3      1.0000 0.62614  0.99985  0.12511  Biso   1.000  Hf
  Hf4      1.0000 0.62627  0.00001  0.62512  Biso   1.000  Hf
  Hf5      1.0000 0.62598  0.49984  0.12514  Biso   1.000  Hf
  Hf6      1.0000 0.62604  0.49996  0.62514  Biso   1.000  Hf
  Hf7      1.0000 0.12309  0.24976  0.37551  Biso   1.000  Hf
  Hf8      1.0000 0.12899  0.24990  0.87479  Biso   1.000  Hf
  Hf9      1.0000 0.12910  0.75010  0.37549  Biso   1.000  Hf
  Hf10     1.0000 0.12341  0.75024  0.87475  Biso   1.000  Hf
  Hf11     1.0000 0.62651  0.24991  0.37528  Biso   1.000  Hf
  Hf12     1.0000 0.62550  0.25010  0.87524  Biso   1.000  Hf
  Hf13     1.0000 0.62563  0.74992  0.37527  Biso   1.000  Hf
  Hf14     1.0000 0.62683  0.75004  0.87517  Biso   1.000  Hf
  Hf15     1.0000 0.37821  0.25302  0.12337  Biso   1.000  Hf
  Hf16     1.0000 0.37812  0.24686  0.62717  Biso   1.000  Hf
  Hf17     1.0000 0.37842  0.74665  0.12720  Biso   1.000  Hf
  Hf18     1.0000 0.37835  0.75308  0.62343  Biso   1.000  Hf
  Hf19     1.0000 0.87357  0.25305  0.12724  Biso   1.000  Hf
  Hf20     1.0000 0.87383  0.24688  0.62345  Biso   1.000  Hf
  Hf21     1.0000 0.87376  0.74670  0.12332  Biso   1.000  Hf
  Hf22     1.0000 0.87409  0.75316  0.62711  Biso   1.000  Hf
  Hf23     1.0000 0.38001  0.00311  0.37489  Biso   1.000  Hf
  Hf24     1.0000 0.38051  0.99672  0.87526  Biso   1.000  Hf
  Hf25     1.0000 0.38030  0.49679  0.37563  Biso   1.000  Hf
  Hf26     1.0000 0.38040  0.50308  0.87454  Biso   1.000  Hf
  Hf27     1.0000 0.87193  0.99664  0.37482  Biso   1.000  Hf
  Hf28     1.0000 0.87157  0.00336  0.87527  Biso   1.000  Hf
  Hf29     1.0000 0.87172  0.50305  0.37562  Biso   1.000  Hf
  Hf30     1.0000 0.87178  0.49700  0.87451  Biso   1.000  Hf
  Hf31     1.0000 0.99607  0.15403  0.99811  Biso   1.000  Hf
  Hf32     1.0000 0.01403  0.14781  0.51452  Biso   1.000  Hf
  Hf33     1.0000 0.01443  0.64810  0.01430  Biso   1.000  Hf
  Hf34     1.0000 0.99594  0.65336  0.49787  Biso   1.000  Hf
  Hf35     1.0000 0.50983  0.14816  0.00612  Biso   1.000  Hf
  Hf36     1.0000 0.50950  0.14639  0.50425  Biso   1.000  Hf
  Hf37     1.0000 0.50977  0.64625  0.00422  Biso   1.000  Hf
  Hf38     1.0000 0.50994  0.64827  0.50605  Biso   1.000  Hf
  Hf39     1.0000 0.98702  0.11696  0.26710  Biso   1.000  Hf
  Hf40     1.0000 0.99440  0.09899  0.75347  Biso   1.000  Hf
  Hf41     1.0000 0.99413  0.59831  0.25306  Biso   1.000  Hf
  Hf42     1.0000 0.98744  0.61739  0.76697  Biso   1.000  Hf
  Hf43     1.0000 0.49935  0.10263  0.25172  Biso   1.000  Hf
  Hf44     1.0000 0.49474  0.10303  0.75031  Biso   1.000  Hf
  Hf45     1.0000 0.49475  0.60290  0.25025  Biso   1.000  Hf
  Hf46     1.0000 0.49989  0.60278  0.75173  Biso   1.000  Hf
  Hf47     1.0000 0.01425  0.35179  0.23618  Biso   1.000  Hf
  Hf48     1.0000 0.99585  0.34690  0.75258  Biso   1.000  Hf
  Hf49     1.0000 0.99616  0.84622  0.25235  Biso   1.000  Hf
  Hf50     1.0000 0.01430  0.85241  0.73594  Biso   1.000  Hf
  Hf51     1.0000 0.50967  0.35344  0.24620  Biso   1.000  Hf
  Hf52     1.0000 0.50988  0.35173  0.74436  Biso   1.000  Hf
  Hf53     1.0000 0.51015  0.85157  0.24435  Biso   1.000  Hf
  Hf54     1.0000 0.50982  0.85357  0.74620  Biso   1.000  Hf
  Hf55     1.0000 0.99416  0.40202  0.99740  Biso   1.000  Hf
  Hf56     1.0000 0.98724  0.38277  0.48349  Biso   1.000  Hf
  Hf57     1.0000 0.98751  0.88322  0.98335  Biso   1.000  Hf
  Hf58     1.0000 0.99472  0.90129  0.49698  Biso   1.000  Hf
  Hf59     1.0000 0.49459  0.39683  0.00018  Biso   1.000  Hf
  Hf60     1.0000 0.49970  0.39720  0.49867  Biso   1.000  Hf
  Hf61     1.0000 0.49983  0.89742  0.99871  Biso   1.000  Hf
  Hf62     1.0000 0.49506  0.89696  0.50018  Biso   1.000  Hf
  Hf63     1.0000 0.25581  0.15345  0.25233  Biso   1.000  Hf
  Hf64     1.0000 0.23790  0.14759  0.73595  Biso   1.000  Hf
  Hf65     1.0000 0.23776  0.64793  0.23615  Biso   1.000  Hf
  Hf66     1.0000 0.25635  0.65307  0.75253  Biso   1.000  Hf
  Hf67     1.0000 0.74187  0.14813  0.24440  Biso   1.000  Hf
  Hf68     1.0000 0.74237  0.14644  0.74625  Biso   1.000  Hf
  Hf69     1.0000 0.74234  0.64628  0.24617  Biso   1.000  Hf
  Hf70     1.0000 0.74238  0.64827  0.74434  Biso   1.000  Hf
  Hf71     1.0000 0.26487  0.11708  0.98335  Biso   1.000  Hf
  Hf72     1.0000 0.25744  0.09872  0.49696  Biso   1.000  Hf
  Hf73     1.0000 0.25818  0.59832  0.99733  Biso   1.000  Hf
  Hf74     1.0000 0.26487  0.61718  0.48343  Biso   1.000  Hf
  Hf75     1.0000 0.75255  0.10284  0.99876  Biso   1.000  Hf
  Hf76     1.0000 0.75711  0.10294  0.50021  Biso   1.000  Hf
  Hf77     1.0000 0.75736  0.60281  0.00016  Biso   1.000  Hf
  Hf78     1.0000 0.75242  0.60271  0.49866  Biso   1.000  Hf
  Hf79     1.0000 0.23753  0.35157  0.01428  Biso   1.000  Hf
  Hf80     1.0000 0.25617  0.34660  0.49789  Biso   1.000  Hf
  Hf81     1.0000 0.25631  0.84627  0.99805  Biso   1.000  Hf
  Hf82     1.0000 0.23819  0.85218  0.51439  Biso   1.000  Hf
  Hf83     1.0000 0.74214  0.35336  0.00425  Biso   1.000  Hf
  Hf84     1.0000 0.74214  0.35162  0.50605  Biso   1.000  Hf
  Hf85     1.0000 0.74211  0.85146  0.00599  Biso   1.000  Hf
  Hf86     1.0000 0.74266  0.85351  0.50416  Biso   1.000  Hf
  Hf87     1.0000 0.25791  0.40140  0.25311  Biso   1.000  Hf
  Hf88     1.0000 0.26483  0.38262  0.76697  Biso   1.000  Hf
  Hf89     1.0000 0.26503  0.88282  0.26702  Biso   1.000  Hf
  Hf90     1.0000 0.25781  0.90092  0.75343  Biso   1.000  Hf
  Hf91     1.0000 0.75727  0.39685  0.25027  Biso   1.000  Hf
  Hf92     1.0000 0.75232  0.39721  0.75172  Biso   1.000  Hf
  Hf93     1.0000 0.75267  0.89707  0.25161  Biso   1.000  Hf
  Hf94     1.0000 0.75744  0.89701  0.75025  Biso   1.000  Hf
