data_image0
_cell_length_a       10.1157
_cell_length_b       10.2416
_cell_length_c       10.1157
_cell_angle_alpha    90
_cell_angle_beta     90
_cell_angle_gamma    90

_symmetry_space_group_name_H-M    "P 1"
_symmetry_int_tables_number       1

loop_
  _symmetry_equiv_pos_as_xyz
  'x, y, z'

loop_
  _atom_site_label
  _atom_site_occupancy
  _atom_site_fract_x
  _atom_site_fract_y
  _atom_site_fract_z
  _atom_site_thermal_displace_type
  _atom_site_B_iso_or_equiv
  _atom_site_type_symbol
  La1      1.0000 0.12261  0.99988  0.12513  Biso   1.000  La
  Hf1      1.0000 0.12685  0.99970  0.62589  Biso   1.000  Hf
  Hf2      1.0000 0.12776  0.49998  0.12584  Biso   1.000  Hf
  Hf3      1.0000 0.12544  0.49977  0.62706  Biso   1.000  Hf
  Hf4      1.0000 0.62276  0.99982  0.12599  Biso   1.000  Hf
  Hf5      1.0000 0.62581  0.99971  0.62820  Biso   1.000  Hf
  Hf6      1.0000 0.62559  0.49978  0.12346  Biso   1.000  Hf
  La2      1.0000 0.62473  0.49963  0.62328  Biso   1.000  La
  Hf7      1.0000 0.12679  0.25111  0.37865  Biso   1.000  Hf
  Hf8      1.0000 0.12632  0.25230  0.87428  Biso   1.000  Hf
  Hf9      1.0000 0.12437  0.74824  0.37716  Biso   1.000  Hf
  Hf10     1.0000 0.12495  0.74719  0.87281  Biso   1.000  Hf
  Hf11     1.0000 0.62016  0.24049  0.38062  Biso   1.000  Hf
  Hf12     1.0000 0.62600  0.24226  0.87441  Biso   1.000  Hf
  Hf13     1.0000 0.62913  0.75988  0.38017  Biso   1.000  Hf
  Hf14     1.0000 0.62287  0.75543  0.87364  Biso   1.000  Hf
  Hf15     1.0000 0.37339  0.25583  0.12343  Biso   1.000  Hf
  Hf16     1.0000 0.37255  0.24733  0.62559  Biso   1.000  Hf
  Hf17     1.0000 0.37382  0.74263  0.12622  Biso   1.000  Hf
  Hf18     1.0000 0.37369  0.75241  0.62653  Biso   1.000  Hf
  Hf19     1.0000 0.87995  0.26002  0.12969  Biso   1.000  Hf
  Hf20     1.0000 0.87698  0.24813  0.62498  Biso   1.000  Hf
  Hf21     1.0000 0.88001  0.74069  0.12038  Biso   1.000  Hf
  Hf22     1.0000 0.87805  0.75096  0.62693  Biso   1.000  Hf
  Hf23     1.0000 0.37142  0.99600  0.37887  Biso   1.000  Hf
  Hf24     1.0000 0.37374  0.99957  0.87452  Biso   1.000  Hf
  Hf25     1.0000 0.37073  0.50210  0.37862  Biso   1.000  Hf
  Hf26     1.0000 0.37409  0.49961  0.87385  Biso   1.000  Hf
  Hf27     1.0000 0.87986  0.00102  0.38152  Biso   1.000  Hf
  Hf28     1.0000 0.87850  0.00184  0.87126  Biso   1.000  Hf
  Hf29     1.0000 0.88120  0.50092  0.37990  Biso   1.000  Hf
  Hf30     1.0000 0.87828  0.49573  0.87228  Biso   1.000  Hf
  Hf31     1.0000 0.99273  0.15162  0.99369  Biso   1.000  Hf
  Hf32     1.0000 0.00956  0.14571  0.50771  Biso   1.000  Hf
  Hf33     1.0000 0.01645  0.64165  0.00782  Biso   1.000  Hf
  Hf34     1.0000 0.00718  0.64572  0.50971  Biso   1.000  Hf
  Hf35     1.0000 0.51031  0.15144  0.01680  Biso   1.000  Hf
  Hf36     1.0000 0.50766  0.14136  0.51709  Biso   1.000  Hf
  Hf37     1.0000 0.51611  0.65139  0.01030  Biso   1.000  Hf
  Hf38     1.0000 0.49313  0.65186  0.49282  Biso   1.000  Hf
  Hf39     1.0000 0.98360  0.12104  0.26276  Biso   1.000  Hf
  Hf40     1.0000 0.99580  0.10300  0.74860  Biso   1.000  Hf
  Hf41     1.0000 0.99306  0.60424  0.25205  Biso   1.000  Hf
  Hf42     1.0000 0.99937  0.60220  0.75563  Biso   1.000  Hf
  Hf43     1.0000 0.50151  0.09378  0.26513  Biso   1.000  Hf
  Hf44     1.0000 0.49903  0.10263  0.76108  Biso   1.000  Hf
  Hf45     1.0000 0.48737  0.59083  0.24569  Biso   1.000  Hf
  Hf46     1.0000 0.48694  0.61965  0.76373  Biso   1.000  Hf
  Hf47     1.0000 0.01743  0.35815  0.24466  Biso   1.000  Hf
  Hf48     1.0000 0.00835  0.35251  0.74220  Biso   1.000  Hf
  Hf49     1.0000 0.98977  0.84888  0.25703  Biso   1.000  Hf
  Hf50     1.0000 0.01003  0.85327  0.74242  Biso   1.000  Hf
  Hf51     1.0000 0.52182  0.34290  0.23535  Biso   1.000  Hf
  Hf52     1.0000 0.49485  0.34774  0.75414  Biso   1.000  Hf
  Hf53     1.0000 0.50761  0.84399  0.23856  Biso   1.000  Hf
  Hf54     1.0000 0.50757  0.85709  0.73938  Biso   1.000  Hf
  Hf55     1.0000 0.99450  0.39639  0.99939  Biso   1.000  Hf
  Hf56     1.0000 0.00088  0.39595  0.49740  Biso   1.000  Hf
  Hf57     1.0000 0.98121  0.87844  0.98749  Biso   1.000  Hf
  Hf58     1.0000 0.99665  0.89595  0.50113  Biso   1.000  Hf
  Hf59     1.0000 0.49167  0.40086  0.99874  Biso   1.000  Hf
  Hf60     1.0000 0.48727  0.37867  0.48178  Biso   1.000  Hf
  Hf61     1.0000 0.49807  0.90091  0.99201  Biso   1.000  Hf
  Hf62     1.0000 0.49870  0.89661  0.49485  Biso   1.000  Hf
  Hf63     1.0000 0.25590  0.15071  0.25566  Biso   1.000  Hf
  Hf64     1.0000 0.24075  0.14719  0.74176  Biso   1.000  Hf
  Hf65     1.0000 0.23790  0.64240  0.24412  Biso   1.000  Hf
  Hf66     1.0000 0.24121  0.64720  0.74093  Biso   1.000  Hf
  Hf67     1.0000 0.73714  0.16078  0.23317  Biso   1.000  Hf
  Hf68     1.0000 0.74387  0.14221  0.73835  Biso   1.000  Hf
  Hf69     1.0000 0.73261  0.66077  0.23721  Biso   1.000  Hf
  Hf70     1.0000 0.75512  0.65045  0.75595  Biso   1.000  Hf
  Hf71     1.0000 0.26370  0.11961  0.98744  Biso   1.000  Hf
  Hf72     1.0000 0.25548  0.10243  0.49984  Biso   1.000  Hf
  Hf73     1.0000 0.26041  0.60253  0.99913  Biso   1.000  Hf
  Hf74     1.0000 0.24808  0.60320  0.49598  Biso   1.000  Hf
  Hf75     1.0000 0.74565  0.09064  0.98788  Biso   1.000  Hf
  Hf76     1.0000 0.75189  0.10408  0.49345  Biso   1.000  Hf
  Hf77     1.0000 0.76446  0.59411  0.00144  Biso   1.000  Hf
  Hf78     1.0000 0.76230  0.62090  0.48359  Biso   1.000  Hf
  Hf79     1.0000 0.23912  0.35754  0.00824  Biso   1.000  Hf
  Hf80     1.0000 0.24223  0.35347  0.51068  Biso   1.000  Hf
  Hf81     1.0000 0.25347  0.84761  0.99520  Biso   1.000  Hf
  Hf82     1.0000 0.24151  0.85270  0.50869  Biso   1.000  Hf
  Hf83     1.0000 0.73838  0.34429  0.00815  Biso   1.000  Hf
  Hf84     1.0000 0.75683  0.34877  0.49038  Biso   1.000  Hf
  Hf85     1.0000 0.73478  0.84317  0.02206  Biso   1.000  Hf
  Hf86     1.0000 0.74390  0.85798  0.51784  Biso   1.000  Hf
  Hf87     1.0000 0.26215  0.39565  0.25197  Biso   1.000  Hf
  Hf88     1.0000 0.25001  0.39755  0.75675  Biso   1.000  Hf
  Hf89     1.0000 0.26088  0.87963  0.26332  Biso   1.000  Hf
  Hf90     1.0000 0.25599  0.89757  0.75040  Biso   1.000  Hf
  Hf91     1.0000 0.76935  0.41331  0.24221  Biso   1.000  Hf
  Hf92     1.0000 0.76301  0.37938  0.76150  Biso   1.000  Hf
  Hf93     1.0000 0.74160  0.91320  0.26967  Biso   1.000  Hf
  Hf94     1.0000 0.75126  0.89542  0.76256  Biso   1.000  Hf
