data_image0
_cell_length_a       10.1376
_cell_length_b       10.2928
_cell_length_c       10.5285
_cell_angle_alpha    90
_cell_angle_beta     90
_cell_angle_gamma    90

_symmetry_space_group_name_H-M    "P 1"
_symmetry_int_tables_number       1

loop_
  _symmetry_equiv_pos_as_xyz
  'x, y, z'

loop_
  _atom_site_label
  _atom_site_occupancy
  _atom_site_fract_x
  _atom_site_fract_y
  _atom_site_fract_z
  _atom_site_thermal_displace_type
  _atom_site_B_iso_or_equiv
  _atom_site_type_symbol
  La1      1.0000 0.13304  0.01176  0.16498  Biso   1.000  La
  Hf1      1.0000 0.14083  0.02117  0.67187  Biso   1.000  Hf
  Hf2      1.0000 0.13972  0.52008  0.17181  Biso   1.000  Hf
  Hf3      1.0000 0.13809  0.51986  0.67126  Biso   1.000  Hf
  Hf4      1.0000 0.13797  0.22738  0.42463  Biso   1.000  Hf
  Hf5      1.0000 0.13768  0.23479  0.92009  Biso   1.000  Hf
  Hf6      1.0000 0.13883  0.72726  0.42060  Biso   1.000  Hf
  Hf7      1.0000 0.14243  0.72669  0.91887  Biso   1.000  Hf
  Hf8      1.0000 0.35878  0.26822  0.17404  Biso   1.000  Hf
  Hf9      1.0000 0.36155  0.26978  0.67159  Biso   1.000  Hf
  Hf10     1.0000 0.36708  0.76592  0.16897  Biso   1.000  Hf
  Hf11     1.0000 0.35415  0.76980  0.66450  Biso   1.000  Hf
  Hf12     1.0000 0.36001  0.47663  0.42093  Biso   1.000  Hf
  Hf13     1.0000 0.35940  0.47413  0.92446  Biso   1.000  Hf
  Hf14     1.0000 0.36302  0.97832  0.42100  Biso   1.000  Hf
  Hf15     1.0000 0.36243  0.98463  0.92064  Biso   1.000  Hf
  Hf16     1.0000 0.64227  0.02265  0.08117  Biso   1.000  Hf
  Hf17     1.0000 0.63876  0.02210  0.57938  Biso   1.000  Hf
  Hf18     1.0000 0.63762  0.51460  0.07991  Biso   1.000  Hf
  Hf19     1.0000 0.63799  0.52200  0.57537  Biso   1.000  Hf
  Hf20     1.0000 0.63805  0.22951  0.32876  Biso   1.000  Hf
  Hf21     1.0000 0.63979  0.22929  0.82820  Biso   1.000  Hf
  Hf22     1.0000 0.64083  0.72822  0.32813  Biso   1.000  Hf
  La2      1.0000 0.63314  0.73765  0.83502  Biso   1.000  La
  Hf23     1.0000 0.85924  0.27521  0.07554  Biso   1.000  Hf
  Hf24     1.0000 0.85998  0.27273  0.57907  Biso   1.000  Hf
  Hf25     1.0000 0.86226  0.76481  0.07939  Biso   1.000  Hf
  Hf26     1.0000 0.86299  0.77106  0.57899  Biso   1.000  Hf
  Hf27     1.0000 0.86153  0.47958  0.32840  Biso   1.000  Hf
  Hf28     1.0000 0.85886  0.48114  0.82595  Biso   1.000  Hf
  Hf29     1.0000 0.85420  0.97957  0.33547  Biso   1.000  Hf
  Hf30     1.0000 0.86720  0.98347  0.83103  Biso   1.000  Hf
  Hf31     1.0000 0.02903  0.18234  0.07679  Biso   1.000  Hf
  Hf32     1.0000 0.03189  0.16716  0.58844  Biso   1.000  Hf
  Hf33     1.0000 0.03821  0.66747  0.08415  Biso   1.000  Hf
  Hf34     1.0000 0.03336  0.66442  0.58311  Biso   1.000  Hf
  Hf35     1.0000 0.02037  0.08987  0.34805  Biso   1.000  Hf
  Hf36     1.0000 0.03582  0.08718  0.83503  Biso   1.000  Hf
  Hf37     1.0000 0.03208  0.58679  0.33284  Biso   1.000  Hf
  Hf38     1.0000 0.03162  0.58589  0.83041  Biso   1.000  Hf
  Hf39     1.0000 0.46531  0.40853  0.08735  Biso   1.000  Hf
  Hf40     1.0000 0.46841  0.41069  0.58049  Biso   1.000  Hf
  Hf41     1.0000 0.47508  0.91136  0.07789  Biso   1.000  Hf
  Hf42     1.0000 0.46946  0.91157  0.57868  Biso   1.000  Hf
  Hf43     1.0000 0.46802  0.33508  0.33411  Biso   1.000  Hf
  Hf44     1.0000 0.46492  0.32963  0.83317  Biso   1.000  Hf
  Hf45     1.0000 0.47316  0.83718  0.32932  Biso   1.000  Hf
  Hf46     1.0000 0.44507  0.84543  0.81914  Biso   1.000  Hf
  Hf47     1.0000 0.28013  0.12728  0.30497  Biso   1.000  Hf
  Hf48     1.0000 0.27547  0.12335  0.79286  Biso   1.000  Hf
  Hf49     1.0000 0.27758  0.61880  0.29283  Biso   1.000  Hf
  Hf50     1.0000 0.27594  0.62206  0.79273  Biso   1.000  Hf
  Hf51     1.0000 0.28387  0.13698  0.03609  Biso   1.000  Hf
  Hf52     1.0000 0.27542  0.12443  0.54724  Biso   1.000  Hf
  Hf53     1.0000 0.27677  0.61997  0.04520  Biso   1.000  Hf
  Hf54     1.0000 0.27118  0.62292  0.54105  Biso   1.000  Hf
  Hf55     1.0000 0.22263  0.37242  0.29656  Biso   1.000  Hf
  Hf56     1.0000 0.22402  0.37381  0.79418  Biso   1.000  Hf
  Hf57     1.0000 0.23658  0.86118  0.30045  Biso   1.000  Hf
  Hf58     1.0000 0.21229  0.87162  0.78993  Biso   1.000  Hf
  Hf59     1.0000 0.22108  0.37692  0.04716  Biso   1.000  Hf
  Hf60     1.0000 0.22486  0.37460  0.54643  Biso   1.000  Hf
  Hf61     1.0000 0.24505  0.86210  0.03322  Biso   1.000  Hf
  Hf62     1.0000 0.22450  0.87676  0.54296  Biso   1.000  Hf
  Hf63     1.0000 0.53156  0.16351  0.16956  Biso   1.000  Hf
  Hf64     1.0000 0.53213  0.16263  0.66713  Biso   1.000  Hf
  Hf65     1.0000 0.53580  0.66222  0.16495  Biso   1.000  Hf
  Hf66     1.0000 0.52046  0.65955  0.65193  Biso   1.000  Hf
  Hf67     1.0000 0.53331  0.08492  0.41686  Biso   1.000  Hf
  Hf68     1.0000 0.53832  0.08178  0.91577  Biso   1.000  Hf
  Hf69     1.0000 0.53190  0.58220  0.41156  Biso   1.000  Hf
  Hf70     1.0000 0.52916  0.56702  0.92317  Biso   1.000  Hf
  Hf71     1.0000 0.96485  0.41967  0.16686  Biso   1.000  Hf
  Hf72     1.0000 0.96805  0.41426  0.66590  Biso   1.000  Hf
  Hf73     1.0000 0.94518  0.90376  0.18100  Biso   1.000  Hf
  Hf74     1.0000 0.97325  0.91215  0.67074  Biso   1.000  Hf
  Hf75     1.0000 0.96842  0.33871  0.41955  Biso   1.000  Hf
  Hf76     1.0000 0.96541  0.34085  0.91266  Biso   1.000  Hf
  Hf77     1.0000 0.96945  0.83786  0.42140  Biso   1.000  Hf
  Hf78     1.0000 0.97521  0.83810  0.92217  Biso   1.000  Hf
  Hf79     1.0000 0.77681  0.12941  0.95483  Biso   1.000  Hf
  Hf80     1.0000 0.77111  0.12649  0.45896  Biso   1.000  Hf
  Hf81     1.0000 0.78395  0.61243  0.96392  Biso   1.000  Hf
  Hf82     1.0000 0.77544  0.62499  0.45279  Biso   1.000  Hf
  Hf83     1.0000 0.77589  0.12731  0.20726  Biso   1.000  Hf
  Hf84     1.0000 0.77760  0.13056  0.70719  Biso   1.000  Hf
  Hf85     1.0000 0.77544  0.62600  0.20715  Biso   1.000  Hf
  Hf86     1.0000 0.78016  0.62208  0.69505  Biso   1.000  Hf
  Hf87     1.0000 0.72116  0.37245  0.95282  Biso   1.000  Hf
  Hf88     1.0000 0.72484  0.37474  0.45355  Biso   1.000  Hf
  Hf89     1.0000 0.74515  0.88729  0.96672  Biso   1.000  Hf
  Hf90     1.0000 0.72448  0.87261  0.45699  Biso   1.000  Hf
  Hf91     1.0000 0.72395  0.37555  0.20579  Biso   1.000  Hf
  Hf92     1.0000 0.72265  0.37693  0.70342  Biso   1.000  Hf
  Hf93     1.0000 0.71227  0.87770  0.20999  Biso   1.000  Hf
  Hf94     1.0000 0.73664  0.88821  0.69953  Biso   1.000  Hf
