data_image0
_cell_length_a       10.1029
_cell_length_b       10.2586
_cell_length_c       10.1028
_cell_angle_alpha    90
_cell_angle_beta     90
_cell_angle_gamma    90

_symmetry_space_group_name_H-M    "P 1"
_symmetry_int_tables_number       1

loop_
  _symmetry_equiv_pos_as_xyz
  'x, y, z'

loop_
  _atom_site_label
  _atom_site_occupancy
  _atom_site_fract_x
  _atom_site_fract_y
  _atom_site_fract_z
  _atom_site_thermal_displace_type
  _atom_site_B_iso_or_equiv
  _atom_site_type_symbol
  La1      1.0000 0.12401  0.99926  0.12429  Biso   1.000  La
  Hf1      1.0000 0.12540  0.00099  0.62516  Biso   1.000  Hf
  Hf2      1.0000 0.12339  0.50072  0.12356  Biso   1.000  Hf
  Hf3      1.0000 0.12487  0.49780  0.62962  Biso   1.000  Hf
  Hf4      1.0000 0.62507  0.00107  0.12560  Biso   1.000  Hf
  Hf5      1.0000 0.62587  0.99781  0.62629  Biso   1.000  Hf
  Hf6      1.0000 0.62945  0.49787  0.12516  Biso   1.000  Hf
  Hf7      1.0000 0.62784  0.50412  0.62814  Biso   1.000  Hf
  Hf8      1.0000 0.12275  0.25076  0.37671  Biso   1.000  Hf
  Hf9      1.0000 0.12801  0.25174  0.87247  Biso   1.000  Hf
  Hf10     1.0000 0.12440  0.75074  0.37842  Biso   1.000  Hf
  Hf11     1.0000 0.12133  0.74716  0.87275  Biso   1.000  Hf
  Hf12     1.0000 0.62843  0.24725  0.37962  Biso   1.000  Hf
  Hf13     1.0000 0.62600  0.24962  0.87587  Biso   1.000  Hf
  Hf14     1.0000 0.62858  0.75188  0.37306  Biso   1.000  Hf
  Hf15     1.0000 0.62508  0.74963  0.87502  Biso   1.000  Hf
  Hf16     1.0000 0.37658  0.25082  0.12295  Biso   1.000  Hf
  Hf17     1.0000 0.37939  0.24722  0.62861  Biso   1.000  Hf
  Hf18     1.0000 0.37819  0.75078  0.12468  Biso   1.000  Hf
  Hf19     1.0000 0.37271  0.75182  0.62887  Biso   1.000  Hf
  Hf20     1.0000 0.87236  0.25188  0.12832  Biso   1.000  Hf
  Hf21     1.0000 0.87564  0.24966  0.62632  Biso   1.000  Hf
  Hf22     1.0000 0.87252  0.74727  0.12176  Biso   1.000  Hf
  Hf23     1.0000 0.87468  0.74966  0.62548  Biso   1.000  Hf
  Hf24     1.0000 0.37772  0.00067  0.37788  Biso   1.000  Hf
  Hf25     1.0000 0.37581  0.99776  0.87184  Biso   1.000  Hf
  La2      1.0000 0.37689  0.49922  0.37712  Biso   1.000  La
  Hf26     1.0000 0.37549  0.50098  0.87627  Biso   1.000  Hf
  Hf27     1.0000 0.87150  0.99783  0.37630  Biso   1.000  Hf
  Hf28     1.0000 0.87308  0.00414  0.87336  Biso   1.000  Hf
  Hf29     1.0000 0.87603  0.50107  0.37585  Biso   1.000  Hf
  Hf30     1.0000 0.87484  0.49774  0.87522  Biso   1.000  Hf
  Hf31     1.0000 0.99691  0.15553  0.99724  Biso   1.000  Hf
  Hf32     1.0000 0.00772  0.15172  0.51259  Biso   1.000  Hf
  Hf33     1.0000 0.99747  0.64418  0.99790  Biso   1.000  Hf
  Hf34     1.0000 0.98858  0.65171  0.49355  Biso   1.000  Hf
  Hf35     1.0000 0.51251  0.15183  0.00793  Biso   1.000  Hf
  Hf36     1.0000 0.50342  0.14429  0.50361  Biso   1.000  Hf
  Hf37     1.0000 0.49312  0.65167  0.98885  Biso   1.000  Hf
  Hf38     1.0000 0.50391  0.65565  0.50419  Biso   1.000  Hf
  Hf39     1.0000 0.98890  0.11575  0.26621  Biso   1.000  Hf
  Hf40     1.0000 0.00002  0.09979  0.75412  Biso   1.000  Hf
  Hf41     1.0000 0.00127  0.59887  0.24806  Biso   1.000  Hf
  Hf42     1.0000 0.00030  0.60096  0.74970  Biso   1.000  Hf
  Hf43     1.0000 0.49980  0.09891  0.25342  Biso   1.000  Hf
  Hf44     1.0000 0.50063  0.10103  0.75181  Biso   1.000  Hf
  Hf45     1.0000 0.51215  0.61580  0.23521  Biso   1.000  Hf
  Hf46     1.0000 0.50090  0.59983  0.74735  Biso   1.000  Hf
  Hf47     1.0000 0.99521  0.35376  0.25380  Biso   1.000  Hf
  Hf48     1.0000 0.99644  0.35174  0.75204  Biso   1.000  Hf
  Hf49     1.0000 0.99236  0.84555  0.25269  Biso   1.000  Hf
  Hf50     1.0000 0.00969  0.84878  0.73680  Biso   1.000  Hf
  Hf51     1.0000 0.50861  0.34557  0.24873  Biso   1.000  Hf
  Hf52     1.0000 0.49109  0.34885  0.76457  Biso   1.000  Hf
  Hf53     1.0000 0.50576  0.85377  0.24759  Biso   1.000  Hf
  Hf54     1.0000 0.50431  0.85175  0.74935  Biso   1.000  Hf
  Hf55     1.0000 0.00027  0.39934  0.00044  Biso   1.000  Hf
  Hf56     1.0000 0.00655  0.40241  0.49944  Biso   1.000  Hf
  Hf57     1.0000 0.98395  0.88323  0.98442  Biso   1.000  Hf
  Hf58     1.0000 0.00162  0.90240  0.49462  Biso   1.000  Hf
  Hf59     1.0000 0.49928  0.40249  0.00679  Biso   1.000  Hf
  Hf60     1.0000 0.51670  0.38332  0.51696  Biso   1.000  Hf
  Hf61     1.0000 0.49439  0.90248  0.00195  Biso   1.000  Hf
  Hf62     1.0000 0.50063  0.89930  0.50095  Biso   1.000  Hf
  Hf63     1.0000 0.25733  0.15047  0.25748  Biso   1.000  Hf
  Hf64     1.0000 0.24579  0.14809  0.74403  Biso   1.000  Hf
  Hf65     1.0000 0.24371  0.65039  0.24396  Biso   1.000  Hf
  Hf66     1.0000 0.25508  0.64809  0.75742  Biso   1.000  Hf
  Hf67     1.0000 0.74389  0.14817  0.24603  Biso   1.000  Hf
  Hf68     1.0000 0.74816  0.14863  0.74841  Biso   1.000  Hf
  Hf69     1.0000 0.75716  0.64815  0.25544  Biso   1.000  Hf
  Hf70     1.0000 0.75269  0.64864  0.75305  Biso   1.000  Hf
  Hf71     1.0000 0.26591  0.11566  0.98903  Biso   1.000  Hf
  Hf72     1.0000 0.25324  0.09888  0.49994  Biso   1.000  Hf
  Hf73     1.0000 0.24790  0.59892  0.00151  Biso   1.000  Hf
  Hf74     1.0000 0.23491  0.61576  0.51239  Biso   1.000  Hf
  Hf75     1.0000 0.75406  0.09992  0.00026  Biso   1.000  Hf
  Hf76     1.0000 0.75161  0.10107  0.50085  Biso   1.000  Hf
  Hf77     1.0000 0.74953  0.60109  0.00065  Biso   1.000  Hf
  Hf78     1.0000 0.74707  0.59988  0.50125  Biso   1.000  Hf
  Hf79     1.0000 0.25339  0.35364  0.99539  Biso   1.000  Hf
  Hf80     1.0000 0.24851  0.34555  0.50878  Biso   1.000  Hf
  Hf81     1.0000 0.25222  0.84544  0.99263  Biso   1.000  Hf
  Hf82     1.0000 0.24728  0.85375  0.50601  Biso   1.000  Hf
  Hf83     1.0000 0.75164  0.35170  0.99675  Biso   1.000  Hf
  Hf84     1.0000 0.76432  0.34890  0.49142  Biso   1.000  Hf
  Hf85     1.0000 0.73658  0.84890  0.01010  Biso   1.000  Hf
  Hf86     1.0000 0.74903  0.85180  0.50473  Biso   1.000  Hf
  Hf87     1.0000 0.23896  0.38541  0.23916  Biso   1.000  Hf
  Hf88     1.0000 0.24597  0.39900  0.75297  Biso   1.000  Hf
  Hf89     1.0000 0.26198  0.88536  0.26225  Biso   1.000  Hf
  Hf90     1.0000 0.25476  0.89899  0.74845  Biso   1.000  Hf
  Hf91     1.0000 0.75277  0.39908  0.24629  Biso   1.000  Hf
  Hf92     1.0000 0.74793  0.39763  0.74825  Biso   1.000  Hf
  Hf93     1.0000 0.74816  0.89908  0.25516  Biso   1.000  Hf
  Hf94     1.0000 0.75280  0.89764  0.75322  Biso   1.000  Hf
