data_image0
_cell_length_a       10.1415
_cell_length_b       10.2989
_cell_length_c       10.4758
_cell_angle_alpha    90
_cell_angle_beta     90
_cell_angle_gamma    90

_symmetry_space_group_name_H-M    "P 1"
_symmetry_int_tables_number       1

loop_
  _symmetry_equiv_pos_as_xyz
  'x, y, z'

loop_
  _atom_site_label
  _atom_site_occupancy
  _atom_site_fract_x
  _atom_site_fract_y
  _atom_site_fract_z
  _atom_site_thermal_displace_type
  _atom_site_B_iso_or_equiv
  _atom_site_type_symbol
  La1      1.0000 0.13175  0.01066  0.16414  Biso   1.000  La
  Hf1      1.0000 0.13445  0.02071  0.67191  Biso   1.000  Hf
  Hf2      1.0000 0.13507  0.52025  0.16888  Biso   1.000  Hf
  Hf3      1.0000 0.13998  0.51961  0.66576  Biso   1.000  Hf
  Hf4      1.0000 0.13473  0.22756  0.42225  Biso   1.000  Hf
  Hf5      1.0000 0.13590  0.23153  0.91895  Biso   1.000  Hf
  Hf6      1.0000 0.13301  0.72779  0.42131  Biso   1.000  Hf
  Hf7      1.0000 0.13559  0.73238  0.92032  Biso   1.000  Hf
  Hf8      1.0000 0.35692  0.26951  0.17113  Biso   1.000  Hf
  Hf9      1.0000 0.35792  0.26953  0.67026  Biso   1.000  Hf
  Hf10     1.0000 0.36313  0.76683  0.17190  Biso   1.000  Hf
  Hf11     1.0000 0.35269  0.77245  0.66930  Biso   1.000  Hf
  Hf12     1.0000 0.35613  0.47839  0.41842  Biso   1.000  Hf
  Hf13     1.0000 0.35211  0.47950  0.91959  Biso   1.000  Hf
  Hf14     1.0000 0.35629  0.98015  0.42264  Biso   1.000  Hf
  Hf15     1.0000 0.35683  0.98272  0.91928  Biso   1.000  Hf
  Hf16     1.0000 0.63935  0.02160  0.08040  Biso   1.000  Hf
  Hf17     1.0000 0.63532  0.02272  0.58156  Biso   1.000  Hf
  Hf18     1.0000 0.63149  0.51840  0.08070  Biso   1.000  Hf
  Hf19     1.0000 0.63204  0.52097  0.57733  Biso   1.000  Hf
  Hf20     1.0000 0.63350  0.23157  0.32970  Biso   1.000  Hf
  Hf21     1.0000 0.63451  0.23160  0.82884  Biso   1.000  Hf
  Hf22     1.0000 0.63565  0.72866  0.33068  Biso   1.000  Hf
  Hf23     1.0000 0.62521  0.73429  0.82809  Biso   1.000  Hf
  Hf24     1.0000 0.85553  0.26957  0.08102  Biso   1.000  Hf
  Hf25     1.0000 0.85671  0.27355  0.57772  Biso   1.000  Hf
  Hf26     1.0000 0.85275  0.76874  0.07967  Biso   1.000  Hf
  Hf27     1.0000 0.85532  0.77333  0.57869  Biso   1.000  Hf
  Hf28     1.0000 0.85700  0.48038  0.32804  Biso   1.000  Hf
  La2      1.0000 0.85969  0.49045  0.83582  Biso   1.000  La
  Hf29     1.0000 0.84837  0.98150  0.33423  Biso   1.000  Hf
  Hf30     1.0000 0.85326  0.98089  0.83111  Biso   1.000  Hf
  Hf31     1.0000 0.03531  0.18874  0.08762  Biso   1.000  Hf
  Hf32     1.0000 0.03016  0.16999  0.59053  Biso   1.000  Hf
  Hf33     1.0000 0.03161  0.67374  0.08663  Biso   1.000  Hf
  Hf34     1.0000 0.02800  0.66874  0.58796  Biso   1.000  Hf
  Hf35     1.0000 0.02060  0.08336  0.35127  Biso   1.000  Hf
  Hf36     1.0000 0.03465  0.07442  0.84300  Biso   1.000  Hf
  Hf37     1.0000 0.03042  0.58191  0.33522  Biso   1.000  Hf
  Hf38     1.0000 0.05982  0.57568  0.83721  Biso   1.000  Hf
  Hf39     1.0000 0.46105  0.41448  0.08362  Biso   1.000  Hf
  Hf40     1.0000 0.46190  0.41470  0.58141  Biso   1.000  Hf
  Hf41     1.0000 0.46850  0.91502  0.08324  Biso   1.000  Hf
  Hf42     1.0000 0.46204  0.91482  0.58254  Biso   1.000  Hf
  Hf43     1.0000 0.46413  0.33796  0.33203  Biso   1.000  Hf
  Hf44     1.0000 0.46141  0.33548  0.83199  Biso   1.000  Hf
  Hf45     1.0000 0.46743  0.83758  0.33326  Biso   1.000  Hf
  Hf46     1.0000 0.45972  0.84060  0.82884  Biso   1.000  Hf
  Hf47     1.0000 0.27814  0.12922  0.30382  Biso   1.000  Hf
  Hf48     1.0000 0.27130  0.12349  0.79178  Biso   1.000  Hf
  Hf49     1.0000 0.27160  0.62055  0.29298  Biso   1.000  Hf
  Hf50     1.0000 0.28201  0.62556  0.79085  Biso   1.000  Hf
  Hf51     1.0000 0.28625  0.13368  0.03522  Biso   1.000  Hf
  Hf52     1.0000 0.27073  0.12420  0.54694  Biso   1.000  Hf
  Hf53     1.0000 0.27204  0.62106  0.04532  Biso   1.000  Hf
  Hf54     1.0000 0.26964  0.62636  0.54132  Biso   1.000  Hf
  Hf55     1.0000 0.21845  0.37345  0.29227  Biso   1.000  Hf
  Hf56     1.0000 0.22060  0.37228  0.79049  Biso   1.000  Hf
  Hf57     1.0000 0.23054  0.86231  0.30166  Biso   1.000  Hf
  Hf58     1.0000 0.21657  0.87374  0.79199  Biso   1.000  Hf
  Hf59     1.0000 0.22010  0.37729  0.04248  Biso   1.000  Hf
  Hf60     1.0000 0.22341  0.37451  0.54130  Biso   1.000  Hf
  Hf61     1.0000 0.24289  0.86302  0.03480  Biso   1.000  Hf
  Hf62     1.0000 0.21703  0.87694  0.54524  Biso   1.000  Hf
  Hf63     1.0000 0.53002  0.16562  0.16798  Biso   1.000  Hf
  Hf64     1.0000 0.52731  0.16315  0.66793  Biso   1.000  Hf
  Hf65     1.0000 0.52860  0.66050  0.17114  Biso   1.000  Hf
  Hf66     1.0000 0.52091  0.66352  0.66672  Biso   1.000  Hf
  Hf67     1.0000 0.52952  0.08641  0.41856  Biso   1.000  Hf
  Hf68     1.0000 0.53038  0.08661  0.91634  Biso   1.000  Hf
  Hf69     1.0000 0.52630  0.58629  0.41745  Biso   1.000  Hf
  Hf70     1.0000 0.51985  0.58610  0.91676  Biso   1.000  Hf
  Hf71     1.0000 0.95680  0.42666  0.15699  Biso   1.000  Hf
  Hf72     1.0000 0.97085  0.41771  0.64872  Biso   1.000  Hf
  Hf73     1.0000 0.92852  0.92544  0.16278  Biso   1.000  Hf
  Hf74     1.0000 0.95791  0.91922  0.66474  Biso   1.000  Hf
  Hf75     1.0000 0.96130  0.33113  0.40945  Biso   1.000  Hf
  Hf76     1.0000 0.95614  0.31237  0.91235  Biso   1.000  Hf
  Hf77     1.0000 0.96032  0.83235  0.41204  Biso   1.000  Hf
  Hf78     1.0000 0.95673  0.82737  0.91337  Biso   1.000  Hf
  Hf79     1.0000 0.77137  0.12383  0.95747  Biso   1.000  Hf
  Hf80     1.0000 0.76805  0.12660  0.45865  Biso   1.000  Hf
  Hf81     1.0000 0.74543  0.63808  0.96519  Biso   1.000  Hf
  Hf82     1.0000 0.77128  0.62418  0.45477  Biso   1.000  Hf
  Hf83     1.0000 0.77085  0.12881  0.20950  Biso   1.000  Hf
  Hf84     1.0000 0.77301  0.12766  0.70771  Biso   1.000  Hf
  Hf85     1.0000 0.77175  0.62736  0.20797  Biso   1.000  Hf
  Hf86     1.0000 0.75777  0.63880  0.69831  Biso   1.000  Hf
  Hf87     1.0000 0.70521  0.36742  0.96473  Biso   1.000  Hf
  Hf88     1.0000 0.72074  0.37690  0.45300  Biso   1.000  Hf
  Hf89     1.0000 0.71628  0.88006  0.95469  Biso   1.000  Hf
  Hf90     1.0000 0.71867  0.87476  0.45868  Biso   1.000  Hf
  Hf91     1.0000 0.72015  0.37760  0.20820  Biso   1.000  Hf
  Hf92     1.0000 0.71331  0.37189  0.69614  Biso   1.000  Hf
  Hf93     1.0000 0.70631  0.87555  0.20913  Biso   1.000  Hf
  Hf94     1.0000 0.71672  0.88057  0.70700  Biso   1.000  Hf
