data_image0
_cell_length_a       10.1205
_cell_length_b       10.3283
_cell_length_c       10.4519
_cell_angle_alpha    90
_cell_angle_beta     90
_cell_angle_gamma    90

_symmetry_space_group_name_H-M    "P 1"
_symmetry_int_tables_number       1

loop_
  _symmetry_equiv_pos_as_xyz
  'x, y, z'

loop_
  _atom_site_label
  _atom_site_occupancy
  _atom_site_fract_x
  _atom_site_fract_y
  _atom_site_fract_z
  _atom_site_thermal_displace_type
  _atom_site_B_iso_or_equiv
  _atom_site_type_symbol
  Hf1      1.0000 0.14528  0.99843  0.18356  Biso   1.000  Hf
  Hf2      1.0000 0.14834  0.01432  0.66870  Biso   1.000  Hf
  Hf3      1.0000 0.14009  0.51620  0.17048  Biso   1.000  Hf
  Hf4      1.0000 0.14788  0.52061  0.66931  Biso   1.000  Hf
  Hf5      1.0000 0.14627  0.22836  0.42107  Biso   1.000  Hf
  La1      1.0000 0.13096  0.24898  0.89592  Biso   1.000  La
  Hf6      1.0000 0.14212  0.72201  0.42186  Biso   1.000  Hf
  Hf7      1.0000 0.14524  0.72568  0.92153  Biso   1.000  Hf
  La2      1.0000 0.36961  0.25623  0.15422  Biso   1.000  La
  Hf8      1.0000 0.37438  0.26889  0.66664  Biso   1.000  Hf
  Hf9      1.0000 0.36355  0.76663  0.17005  Biso   1.000  Hf
  Hf10     1.0000 0.36752  0.77114  0.67207  Biso   1.000  Hf
  Hf11     1.0000 0.36727  0.47441  0.41856  Biso   1.000  Hf
  Hf12     1.0000 0.37416  0.48669  0.91850  Biso   1.000  Hf
  Hf13     1.0000 0.36846  0.97567  0.42394  Biso   1.000  Hf
  Hf14     1.0000 0.35969  0.97947  0.92096  Biso   1.000  Hf
  Hf15     1.0000 0.63924  0.01650  0.07903  Biso   1.000  Hf
  Hf16     1.0000 0.64831  0.01965  0.57975  Biso   1.000  Hf
  Hf17     1.0000 0.63324  0.53118  0.07903  Biso   1.000  Hf
  Hf18     1.0000 0.64307  0.52191  0.57743  Biso   1.000  Hf
  Hf19     1.0000 0.64538  0.23067  0.33833  Biso   1.000  Hf
  Hf20     1.0000 0.64388  0.22763  0.83075  Biso   1.000  Hf
  Hf21     1.0000 0.64258  0.73085  0.32974  Biso   1.000  Hf
  Hf22     1.0000 0.64449  0.73273  0.82602  Biso   1.000  Hf
  Hf23     1.0000 0.82133  0.28226  0.08617  Biso   1.000  Hf
  Hf24     1.0000 0.87118  0.26917  0.58298  Biso   1.000  Hf
  Hf25     1.0000 0.86091  0.76911  0.07787  Biso   1.000  Hf
  Hf26     1.0000 0.86658  0.76965  0.57434  Biso   1.000  Hf
  Hf27     1.0000 0.86704  0.47770  0.33125  Biso   1.000  Hf
  Hf28     1.0000 0.86400  0.48308  0.82880  Biso   1.000  Hf
  Hf29     1.0000 0.86398  0.98186  0.32789  Biso   1.000  Hf
  Hf30     1.0000 0.86691  0.97404  0.82533  Biso   1.000  Hf
  Hf31     1.0000 0.04130  0.15987  0.58314  Biso   1.000  Hf
  Hf32     1.0000 0.02910  0.66019  0.08381  Biso   1.000  Hf
  Hf33     1.0000 0.03439  0.65871  0.57950  Biso   1.000  Hf
  Hf34     1.0000 0.03554  0.09311  0.32063  Biso   1.000  Hf
  Hf35     1.0000 0.03973  0.06469  0.82986  Biso   1.000  Hf
  Hf36     1.0000 0.03426  0.58435  0.33124  Biso   1.000  Hf
  Hf37     1.0000 0.04125  0.57929  0.83224  Biso   1.000  Hf
  Hf38     1.0000 0.46138  0.44517  0.08805  Biso   1.000  Hf
  Hf39     1.0000 0.47384  0.42082  0.58753  Biso   1.000  Hf
  Hf40     1.0000 0.45325  0.93506  0.09663  Biso   1.000  Hf
  Hf41     1.0000 0.47147  0.92046  0.58933  Biso   1.000  Hf
  Hf42     1.0000 0.47529  0.32632  0.35020  Biso   1.000  Hf
  Hf43     1.0000 0.47228  0.32594  0.84185  Biso   1.000  Hf
  Hf44     1.0000 0.46747  0.82738  0.33916  Biso   1.000  Hf
  Hf45     1.0000 0.47061  0.83438  0.83819  Biso   1.000  Hf
  Hf46     1.0000 0.27738  0.10759  0.30222  Biso   1.000  Hf
  Hf47     1.0000 0.29425  0.11473  0.78356  Biso   1.000  Hf
  Hf48     1.0000 0.27908  0.61988  0.29232  Biso   1.000  Hf
  Hf49     1.0000 0.28066  0.62938  0.79380  Biso   1.000  Hf
  Hf50     1.0000 0.22689  0.10741  0.04212  Biso   1.000  Hf
  Hf51     1.0000 0.28377  0.12534  0.54274  Biso   1.000  Hf
  Hf52     1.0000 0.27517  0.62932  0.04404  Biso   1.000  Hf
  Hf53     1.0000 0.28151  0.62416  0.54375  Biso   1.000  Hf
  Hf54     1.0000 0.22280  0.37458  0.29812  Biso   1.000  Hf
  Hf55     1.0000 0.25473  0.38995  0.77839  Biso   1.000  Hf
  Hf56     1.0000 0.22816  0.86359  0.29651  Biso   1.000  Hf
  Hf57     1.0000 0.22795  0.87171  0.79547  Biso   1.000  Hf
  Hf58     1.0000 0.21874  0.39337  0.03534  Biso   1.000  Hf
  Hf59     1.0000 0.23262  0.37309  0.54198  Biso   1.000  Hf
  Hf60     1.0000 0.22469  0.86389  0.04626  Biso   1.000  Hf
  Hf61     1.0000 0.23068  0.87153  0.54448  Biso   1.000  Hf
  Hf62     1.0000 0.58025  0.18399  0.15686  Biso   1.000  Hf
  Hf63     1.0000 0.54846  0.17058  0.66128  Biso   1.000  Hf
  Hf64     1.0000 0.54259  0.68621  0.15763  Biso   1.000  Hf
  Hf65     1.0000 0.54004  0.67118  0.66182  Biso   1.000  Hf
  Hf66     1.0000 0.54456  0.07695  0.41101  Biso   1.000  Hf
  Hf67     1.0000 0.53720  0.08337  0.92003  Biso   1.000  Hf
  Hf68     1.0000 0.54014  0.58065  0.41064  Biso   1.000  Hf
  Hf69     1.0000 0.54492  0.58733  0.90836  Biso   1.000  Hf
  Hf70     1.0000 0.96571  0.39714  0.17349  Biso   1.000  Hf
  Hf71     1.0000 0.98465  0.39910  0.68442  Biso   1.000  Hf
  Hf72     1.0000 0.96596  0.91992  0.15970  Biso   1.000  Hf
  Hf73     1.0000 0.97145  0.90923  0.66200  Biso   1.000  Hf
  Hf74     1.0000 0.97509  0.33876  0.42667  Biso   1.000  Hf
  Hf75     1.0000 0.94050  0.34243  0.93676  Biso   1.000  Hf
  Hf76     1.0000 0.97473  0.83607  0.41272  Biso   1.000  Hf
  Hf77     1.0000 0.97186  0.82664  0.91388  Biso   1.000  Hf
  Hf78     1.0000 0.78422  0.12435  0.95822  Biso   1.000  Hf
  Hf79     1.0000 0.78432  0.12315  0.45963  Biso   1.000  Hf
  Hf80     1.0000 0.78397  0.62635  0.95371  Biso   1.000  Hf
  Hf81     1.0000 0.77947  0.62420  0.45396  Biso   1.000  Hf
  Hf82     1.0000 0.79829  0.13039  0.21195  Biso   1.000  Hf
  Hf83     1.0000 0.78454  0.12297  0.70821  Biso   1.000  Hf
  Hf84     1.0000 0.77904  0.62954  0.20633  Biso   1.000  Hf
  Hf85     1.0000 0.78072  0.62646  0.70295  Biso   1.000  Hf
  Hf86     1.0000 0.70732  0.37592  0.96017  Biso   1.000  Hf
  Hf87     1.0000 0.73422  0.37339  0.46042  Biso   1.000  Hf
  Hf88     1.0000 0.73086  0.87311  0.95468  Biso   1.000  Hf
  Hf89     1.0000 0.72971  0.87363  0.45400  Biso   1.000  Hf
  Hf90     1.0000 0.71626  0.39103  0.21433  Biso   1.000  Hf
  Hf91     1.0000 0.73375  0.37654  0.70772  Biso   1.000  Hf
  Hf92     1.0000 0.72642  0.88075  0.20612  Biso   1.000  Hf
  Hf93     1.0000 0.72907  0.87495  0.70170  Biso   1.000  Hf
