data_image0
_cell_length_a       10.1707
_cell_length_b       10.3665
_cell_length_c       10.5118
_cell_angle_alpha    90
_cell_angle_beta     80
_cell_angle_gamma    90

_symmetry_space_group_name_H-M    "P 1"
_symmetry_int_tables_number       1

loop_
  _symmetry_equiv_pos_as_xyz
  'x, y, z'

loop_
  _atom_site_label
  _atom_site_occupancy
  _atom_site_fract_x
  _atom_site_fract_y
  _atom_site_fract_z
  _atom_site_thermal_displace_type
  _atom_site_B_iso_or_equiv
  _atom_site_type_symbol
  La1      1.0000 0.12396  0.00901  0.13964  Biso   1.000  La
  Hf1      1.0000 0.12802  0.02695  0.64803  Biso   1.000  Hf
  Hf2      1.0000 0.13883  0.51966  0.14601  Biso   1.000  Hf
  Hf3      1.0000 0.13078  0.52675  0.64708  Biso   1.000  Hf
  Hf4      1.0000 0.63664  0.02848  0.14306  Biso   1.000  Hf
  Hf5      1.0000 0.62823  0.02997  0.65370  Biso   1.000  Hf
  Hf6      1.0000 0.63043  0.51252  0.14549  Biso   1.000  Hf
  Hf7      1.0000 0.62866  0.52762  0.64521  Biso   1.000  Hf
  Hf8      1.0000 0.13465  0.23479  0.39972  Biso   1.000  Hf
  Hf9      1.0000 0.12525  0.23699  0.89501  Biso   1.000  Hf
  Hf10     1.0000 0.13266  0.73071  0.39802  Biso   1.000  Hf
  Hf11     1.0000 0.13437  0.73209  0.89395  Biso   1.000  Hf
  Hf12     1.0000 0.62978  0.23446  0.39758  Biso   1.000  Hf
  Hf13     1.0000 0.62776  0.23633  0.89749  Biso   1.000  Hf
  La2      1.0000 0.62993  0.74045  0.38849  Biso   1.000  La
  Hf14     1.0000 0.62498  0.73455  0.89351  Biso   1.000  Hf
  Hf15     1.0000 0.35447  0.26793  0.10246  Biso   1.000  Hf
  Hf16     1.0000 0.35225  0.27483  0.60629  Biso   1.000  Hf
  Hf17     1.0000 0.36654  0.76772  0.10486  Biso   1.000  Hf
  Hf18     1.0000 0.34834  0.77795  0.60839  Biso   1.000  Hf
  Hf19     1.0000 0.85957  0.27591  0.10388  Biso   1.000  Hf
  Hf20     1.0000 0.85326  0.28003  0.60678  Biso   1.000  Hf
  Hf21     1.0000 0.86014  0.74659  0.08383  Biso   1.000  Hf
  Hf22     1.0000 0.85447  0.77521  0.60636  Biso   1.000  Hf
  Hf23     1.0000 0.35283  0.47880  0.35344  Biso   1.000  Hf
  Hf24     1.0000 0.35202  0.48151  0.85530  Biso   1.000  Hf
  Hf25     1.0000 0.35104  0.98526  0.35598  Biso   1.000  Hf
  Hf26     1.0000 0.35081  0.98425  0.85479  Biso   1.000  Hf
  Hf27     1.0000 0.85648  0.48227  0.35468  Biso   1.000  Hf
  Hf28     1.0000 0.85063  0.48323  0.85010  Biso   1.000  Hf
  Hf29     1.0000 0.85562  0.99870  0.37878  Biso   1.000  Hf
  Hf30     1.0000 0.84872  0.98412  0.85750  Biso   1.000  Hf
  Hf31     1.0000 0.03350  0.18715  0.07668  Biso   1.000  Hf
  Hf32     1.0000 0.02774  0.17892  0.58757  Biso   1.000  Hf
  Hf33     1.0000 0.04230  0.67600  0.08076  Biso   1.000  Hf
  Hf34     1.0000 0.02918  0.67617  0.58293  Biso   1.000  Hf
  Hf35     1.0000 0.53332  0.16862  0.07937  Biso   1.000  Hf
  Hf36     1.0000 0.52559  0.17222  0.58158  Biso   1.000  Hf
  Hf37     1.0000 0.54016  0.66773  0.08012  Biso   1.000  Hf
  Hf38     1.0000 0.51865  0.67078  0.59104  Biso   1.000  Hf
  Hf39     1.0000 0.02884  0.08512  0.34857  Biso   1.000  Hf
  Hf40     1.0000 0.02582  0.08346  0.83692  Biso   1.000  Hf
  Hf41     1.0000 0.03202  0.58361  0.32947  Biso   1.000  Hf
  Hf42     1.0000 0.02367  0.58703  0.83209  Biso   1.000  Hf
  Hf43     1.0000 0.53839  0.07561  0.33135  Biso   1.000  Hf
  Hf44     1.0000 0.52592  0.08725  0.83426  Biso   1.000  Hf
  Hf45     1.0000 0.52912  0.56372  0.32635  Biso   1.000  Hf
  Hf46     1.0000 0.52527  0.58383  0.83285  Biso   1.000  Hf
  Hf47     1.0000 0.45625  0.41447  0.16676  Biso   1.000  Hf
  Hf48     1.0000 0.45522  0.42117  0.67131  Biso   1.000  Hf
  Hf49     1.0000 0.47214  0.91232  0.17639  Biso   1.000  Hf
  Hf50     1.0000 0.45617  0.92287  0.67503  Biso   1.000  Hf
  Hf51     1.0000 0.96099  0.42458  0.16824  Biso   1.000  Hf
  Hf52     1.0000 0.95484  0.42909  0.66830  Biso   1.000  Hf
  Hf53     1.0000 0.90067  0.92273  0.17902  Biso   1.000  Hf
  Hf54     1.0000 0.95196  0.92631  0.67338  Biso   1.000  Hf
  Hf55     1.0000 0.45247  0.32631  0.41857  Biso   1.000  Hf
  Hf56     1.0000 0.45295  0.33544  0.92117  Biso   1.000  Hf
  Hf57     1.0000 0.43669  0.84050  0.43226  Biso   1.000  Hf
  Hf58     1.0000 0.45933  0.84058  0.92425  Biso   1.000  Hf
  Hf59     1.0000 0.95790  0.33551  0.42208  Biso   1.000  Hf
  Hf60     1.0000 0.94861  0.33717  0.91592  Biso   1.000  Hf
  Hf61     1.0000 0.95707  0.83550  0.41725  Biso   1.000  Hf
  Hf62     1.0000 0.95923  0.83858  0.92239  Biso   1.000  Hf
  Hf63     1.0000 0.27562  0.13440  0.24479  Biso   1.000  Hf
  Hf64     1.0000 0.26536  0.13411  0.74027  Biso   1.000  Hf
  Hf65     1.0000 0.27436  0.62586  0.23932  Biso   1.000  Hf
  Hf66     1.0000 0.26493  0.63288  0.74289  Biso   1.000  Hf
  Hf67     1.0000 0.77357  0.13406  0.24605  Biso   1.000  Hf
  Hf68     1.0000 0.76733  0.13606  0.74527  Biso   1.000  Hf
  Hf69     1.0000 0.77878  0.62011  0.22627  Biso   1.000  Hf
  Hf70     1.0000 0.76441  0.63585  0.74000  Biso   1.000  Hf
  Hf71     1.0000 0.26754  0.12477  0.49341  Biso   1.000  Hf
  Hf72     1.0000 0.26759  0.13000  0.98356  Biso   1.000  Hf
  Hf73     1.0000 0.26766  0.62344  0.49153  Biso   1.000  Hf
  Hf74     1.0000 0.26626  0.62241  0.99196  Biso   1.000  Hf
  Hf75     1.0000 0.76601  0.13515  0.49969  Biso   1.000  Hf
  Hf76     1.0000 0.76299  0.12750  0.99389  Biso   1.000  Hf
  Hf77     1.0000 0.77683  0.61978  0.49585  Biso   1.000  Hf
  Hf78     1.0000 0.76242  0.62267  0.98324  Biso   1.000  Hf
  Hf79     1.0000 0.22339  0.37843  0.00775  Biso   1.000  Hf
  Hf80     1.0000 0.21566  0.38328  0.51151  Biso   1.000  Hf
  Hf81     1.0000 0.22583  0.87137  0.00008  Biso   1.000  Hf
  Hf82     1.0000 0.20367  0.88585  0.51362  Biso   1.000  Hf
  Hf83     1.0000 0.72215  0.37779  0.00750  Biso   1.000  Hf
  Hf84     1.0000 0.71392  0.38357  0.50913  Biso   1.000  Hf
  Hf85     1.0000 0.72583  0.87610  0.00954  Biso   1.000  Hf
  Hf86     1.0000 0.72461  0.89655  0.52022  Biso   1.000  Hf
  Hf87     1.0000 0.21562  0.37190  0.25883  Biso   1.000  Hf
  Hf88     1.0000 0.21310  0.37699  0.76018  Biso   1.000  Hf
  Hf89     1.0000 0.23217  0.86230  0.26258  Biso   1.000  Hf
  Hf90     1.0000 0.21321  0.87649  0.75994  Biso   1.000  Hf
  Hf91     1.0000 0.71962  0.37128  0.25961  Biso   1.000  Hf
  Hf92     1.0000 0.71368  0.37616  0.75913  Biso   1.000  Hf
  Hf93     1.0000 0.76645  0.88741  0.24113  Biso   1.000  Hf
  Hf94     1.0000 0.71442  0.87615  0.76367  Biso   1.000  Hf
