data_image0
_cell_length_a       10.2231
_cell_length_b       10.3341
_cell_length_c       10.507
_cell_angle_alpha    90
_cell_angle_beta     80
_cell_angle_gamma    90

_symmetry_space_group_name_H-M    "P 1"
_symmetry_int_tables_number       1

loop_
  _symmetry_equiv_pos_as_xyz
  'x, y, z'

loop_
  _atom_site_label
  _atom_site_occupancy
  _atom_site_fract_x
  _atom_site_fract_y
  _atom_site_fract_z
  _atom_site_thermal_displace_type
  _atom_site_B_iso_or_equiv
  _atom_site_type_symbol
  La1      1.0000 0.12926  0.00848  0.14100  Biso   1.000  La
  Hf1      1.0000 0.13234  0.02113  0.64669  Biso   1.000  Hf
  Hf2      1.0000 0.13561  0.51927  0.14531  Biso   1.000  Hf
  Hf3      1.0000 0.12988  0.52215  0.64820  Biso   1.000  Hf
  Hf4      1.0000 0.63836  0.01926  0.14528  Biso   1.000  Hf
  Hf5      1.0000 0.63262  0.02219  0.64815  Biso   1.000  Hf
  La2      1.0000 0.62650  0.50848  0.14096  Biso   1.000  La
  Hf6      1.0000 0.62957  0.52113  0.64666  Biso   1.000  Hf
  Hf7      1.0000 0.12942  0.22619  0.39886  Biso   1.000  Hf
  Hf8      1.0000 0.13055  0.23265  0.89353  Biso   1.000  Hf
  Hf9      1.0000 0.12959  0.72776  0.39771  Biso   1.000  Hf
  Hf10     1.0000 0.12837  0.72798  0.89625  Biso   1.000  Hf
  Hf11     1.0000 0.63231  0.22776  0.39772  Biso   1.000  Hf
  Hf12     1.0000 0.63112  0.22799  0.89623  Biso   1.000  Hf
  Hf13     1.0000 0.62673  0.72618  0.39881  Biso   1.000  Hf
  Hf14     1.0000 0.62784  0.73266  0.89347  Biso   1.000  Hf
  Hf15     1.0000 0.35408  0.26244  0.10286  Biso   1.000  Hf
  Hf16     1.0000 0.35386  0.27111  0.60445  Biso   1.000  Hf
  Hf17     1.0000 0.36004  0.76928  0.10251  Biso   1.000  Hf
  Hf18     1.0000 0.34934  0.77230  0.60525  Biso   1.000  Hf
  Hf19     1.0000 0.86277  0.26925  0.10250  Biso   1.000  Hf
  Hf20     1.0000 0.85208  0.27229  0.60524  Biso   1.000  Hf
  Hf21     1.0000 0.85134  0.76248  0.10283  Biso   1.000  Hf
  Hf22     1.0000 0.85117  0.77110  0.60437  Biso   1.000  Hf
  Hf23     1.0000 0.34440  0.47732  0.36017  Biso   1.000  Hf
  Hf24     1.0000 0.35225  0.47798  0.85689  Biso   1.000  Hf
  Hf25     1.0000 0.35208  0.97982  0.35566  Biso   1.000  Hf
  Hf26     1.0000 0.34904  0.97884  0.85109  Biso   1.000  Hf
  Hf27     1.0000 0.85481  0.47985  0.35561  Biso   1.000  Hf
  Hf28     1.0000 0.85179  0.47888  0.85107  Biso   1.000  Hf
  Hf29     1.0000 0.84165  0.97736  0.36011  Biso   1.000  Hf
  Hf30     1.0000 0.84948  0.97796  0.85684  Biso   1.000  Hf
  Hf31     1.0000 0.03829  0.18872  0.07532  Biso   1.000  Hf
  Hf32     1.0000 0.02659  0.16976  0.58582  Biso   1.000  Hf
  Hf33     1.0000 0.03408  0.67221  0.08000  Biso   1.000  Hf
  Hf34     1.0000 0.02355  0.66736  0.58148  Biso   1.000  Hf
  Hf35     1.0000 0.53681  0.17209  0.07991  Biso   1.000  Hf
  Hf36     1.0000 0.52622  0.16730  0.58143  Biso   1.000  Hf
  Hf37     1.0000 0.53553  0.68869  0.07523  Biso   1.000  Hf
  Hf38     1.0000 0.52382  0.66970  0.58576  Biso   1.000  Hf
  Hf39     1.0000 0.01647  0.08421  0.34566  Biso   1.000  Hf
  Hf40     1.0000 0.02856  0.08083  0.83329  Biso   1.000  Hf
  Hf41     1.0000 0.02850  0.58208  0.33022  Biso   1.000  Hf
  Hf42     1.0000 0.02526  0.58226  0.82865  Biso   1.000  Hf
  Hf43     1.0000 0.53121  0.08214  0.33017  Biso   1.000  Hf
  Hf44     1.0000 0.52796  0.08236  0.82856  Biso   1.000  Hf
  Hf45     1.0000 0.51370  0.58433  0.34555  Biso   1.000  Hf
  Hf46     1.0000 0.52581  0.58093  0.83321  Biso   1.000  Hf
  Hf47     1.0000 0.42813  0.41497  0.17927  Biso   1.000  Hf
  Hf48     1.0000 0.45681  0.41692  0.67315  Biso   1.000  Hf
  Hf49     1.0000 0.45386  0.92617  0.16744  Biso   1.000  Hf
  Hf50     1.0000 0.45395  0.91909  0.66928  Biso   1.000  Hf
  Hf51     1.0000 0.95658  0.42621  0.16739  Biso   1.000  Hf
  Hf52     1.0000 0.95665  0.41917  0.66921  Biso   1.000  Hf
  Hf53     1.0000 0.92529  0.91519  0.17908  Biso   1.000  Hf
  Hf54     1.0000 0.95405  0.91702  0.67304  Biso   1.000  Hf
  Hf55     1.0000 0.45821  0.33245  0.42154  Biso   1.000  Hf
  Hf56     1.0000 0.45977  0.33617  0.92544  Biso   1.000  Hf
  Hf57     1.0000 0.45452  0.83404  0.42470  Biso   1.000  Hf
  Hf58     1.0000 0.45839  0.83701  0.91509  Biso   1.000  Hf
  Hf59     1.0000 0.95721  0.33399  0.42466  Biso   1.000  Hf
  Hf60     1.0000 0.96110  0.33689  0.91500  Biso   1.000  Hf
  Hf61     1.0000 0.95543  0.83238  0.42141  Biso   1.000  Hf
  Hf62     1.0000 0.95695  0.83604  0.92531  Biso   1.000  Hf
  Hf63     1.0000 0.27585  0.13425  0.24962  Biso   1.000  Hf
  Hf64     1.0000 0.26760  0.12961  0.73758  Biso   1.000  Hf
  Hf65     1.0000 0.26843  0.62537  0.24105  Biso   1.000  Hf
  Hf66     1.0000 0.26663  0.62937  0.74227  Biso   1.000  Hf
  Hf67     1.0000 0.77115  0.12539  0.24106  Biso   1.000  Hf
  Hf68     1.0000 0.76939  0.12933  0.74226  Biso   1.000  Hf
  Hf69     1.0000 0.77313  0.63422  0.24955  Biso   1.000  Hf
  Hf70     1.0000 0.76487  0.62955  0.73750  Biso   1.000  Hf
  Hf71     1.0000 0.26766  0.12062  0.49292  Biso   1.000  Hf
  Hf72     1.0000 0.27326  0.12505  0.97943  Biso   1.000  Hf
  Hf73     1.0000 0.26228  0.62224  0.49447  Biso   1.000  Hf
  Hf74     1.0000 0.26314  0.61742  0.99222  Biso   1.000  Hf
  Hf75     1.0000 0.76503  0.12229  0.49446  Biso   1.000  Hf
  Hf76     1.0000 0.76590  0.11746  0.99220  Biso   1.000  Hf
  Hf77     1.0000 0.76495  0.62066  0.49290  Biso   1.000  Hf
  Hf78     1.0000 0.77051  0.62508  0.97939  Biso   1.000  Hf
  Hf79     1.0000 0.22597  0.37833  0.00761  Biso   1.000  Hf
  Hf80     1.0000 0.21536  0.37817  0.51285  Biso   1.000  Hf
  Hf81     1.0000 0.22549  0.86576  0.99590  Biso   1.000  Hf
  Hf82     1.0000 0.21281  0.87953  0.51168  Biso   1.000  Hf
  Hf83     1.0000 0.72825  0.36579  0.99589  Biso   1.000  Hf
  Hf84     1.0000 0.71556  0.37959  0.51167  Biso   1.000  Hf
  Hf85     1.0000 0.72320  0.87838  0.00755  Biso   1.000  Hf
  Hf86     1.0000 0.71266  0.87822  0.51279  Biso   1.000  Hf
  Hf87     1.0000 0.20044  0.37034  0.26464  Biso   1.000  Hf
  Hf88     1.0000 0.21763  0.37307  0.75936  Biso   1.000  Hf
  Hf89     1.0000 0.22809  0.85979  0.26594  Biso   1.000  Hf
  Hf90     1.0000 0.21174  0.87128  0.75704  Biso   1.000  Hf
  Hf91     1.0000 0.73081  0.35977  0.26591  Biso   1.000  Hf
  Hf92     1.0000 0.71449  0.37125  0.75703  Biso   1.000  Hf
  Hf93     1.0000 0.69770  0.87023  0.26454  Biso   1.000  Hf
  Hf94     1.0000 0.71488  0.87305  0.75926  Biso   1.000  Hf
