data_image0
_cell_length_a       10.1365
_cell_length_b       10.306
_cell_length_c       10.4693
_cell_angle_alpha    90
_cell_angle_beta     90
_cell_angle_gamma    90

_symmetry_space_group_name_H-M    "P 1"
_symmetry_int_tables_number       1

loop_
  _symmetry_equiv_pos_as_xyz
  'x, y, z'

loop_
  _atom_site_label
  _atom_site_occupancy
  _atom_site_fract_x
  _atom_site_fract_y
  _atom_site_fract_z
  _atom_site_thermal_displace_type
  _atom_site_B_iso_or_equiv
  _atom_site_type_symbol
  La1      1.0000 0.13040  0.00921  0.16163  Biso   1.000  La
  Hf1      1.0000 0.13454  0.01984  0.67159  Biso   1.000  Hf
  Hf2      1.0000 0.13588  0.51990  0.17162  Biso   1.000  Hf
  La2      1.0000 0.12433  0.50917  0.66160  Biso   1.000  La
  Hf3      1.0000 0.13696  0.22584  0.42086  Biso   1.000  Hf
  Hf4      1.0000 0.13150  0.23155  0.91947  Biso   1.000  Hf
  Hf5      1.0000 0.13283  0.73160  0.41949  Biso   1.000  Hf
  Hf6      1.0000 0.13088  0.72577  0.92085  Biso   1.000  Hf
  Hf7      1.0000 0.35621  0.26858  0.17016  Biso   1.000  Hf
  Hf8      1.0000 0.36067  0.26543  0.67048  Biso   1.000  Hf
  Hf9      1.0000 0.36201  0.76549  0.17050  Biso   1.000  Hf
  Hf10     1.0000 0.35012  0.76854  0.67015  Biso   1.000  Hf
  Hf11     1.0000 0.35919  0.47845  0.41802  Biso   1.000  Hf
  Hf12     1.0000 0.35292  0.47784  0.92197  Biso   1.000  Hf
  Hf13     1.0000 0.35427  0.97790  0.42196  Biso   1.000  Hf
  Hf14     1.0000 0.35311  0.97841  0.91802  Biso   1.000  Hf
  Hf15     1.0000 0.64009  0.02032  0.07972  Biso   1.000  Hf
  Hf16     1.0000 0.63366  0.01845  0.58045  Biso   1.000  Hf
  Hf17     1.0000 0.63500  0.51851  0.08044  Biso   1.000  Hf
  Hf18     1.0000 0.63400  0.52029  0.57971  Biso   1.000  Hf
  Hf19     1.0000 0.63325  0.23028  0.32793  Biso   1.000  Hf
  Hf20     1.0000 0.63407  0.22765  0.83019  Biso   1.000  Hf
  Hf21     1.0000 0.63540  0.72769  0.33019  Biso   1.000  Hf
  Hf22     1.0000 0.62716  0.73022  0.82793  Biso   1.000  Hf
  Hf23     1.0000 0.85919  0.27372  0.07773  Biso   1.000  Hf
  Hf24     1.0000 0.85328  0.26670  0.57825  Biso   1.000  Hf
  Hf25     1.0000 0.85461  0.76677  0.07824  Biso   1.000  Hf
  Hf26     1.0000 0.85310  0.77366  0.57772  Biso   1.000  Hf
  Hf27     1.0000 0.85790  0.47925  0.33090  Biso   1.000  Hf
  Hf28     1.0000 0.84442  0.48189  0.83237  Biso   1.000  Hf
  Hf29     1.0000 0.84575  0.98194  0.33238  Biso   1.000  Hf
  Hf30     1.0000 0.85182  0.97921  0.83088  Biso   1.000  Hf
  Hf31     1.0000 0.03322  0.19018  0.08362  Biso   1.000  Hf
  Hf32     1.0000 0.03362  0.17943  0.59575  Biso   1.000  Hf
  Hf33     1.0000 0.03496  0.67949  0.09575  Biso   1.000  Hf
  Hf34     1.0000 0.02713  0.69012  0.58358  Biso   1.000  Hf
  Hf35     1.0000 0.01979  0.08337  0.35040  Biso   1.000  Hf
  Hf36     1.0000 0.03079  0.07862  0.84162  Biso   1.000  Hf
  Hf37     1.0000 0.03212  0.57869  0.34159  Biso   1.000  Hf
  Hf38     1.0000 0.01371  0.58331  0.85037  Biso   1.000  Hf
  Hf39     1.0000 0.46561  0.41180  0.08255  Biso   1.000  Hf
  Hf40     1.0000 0.46522  0.41476  0.58372  Biso   1.000  Hf
  Hf41     1.0000 0.46655  0.91481  0.08375  Biso   1.000  Hf
  Hf42     1.0000 0.45953  0.91176  0.58254  Biso   1.000  Hf
  Hf43     1.0000 0.46535  0.33714  0.32960  Biso   1.000  Hf
  Hf44     1.0000 0.46617  0.33501  0.83289  Biso   1.000  Hf
  Hf45     1.0000 0.46749  0.83504  0.33290  Biso   1.000  Hf
  Hf46     1.0000 0.45927  0.83708  0.82960  Biso   1.000  Hf
  Hf47     1.0000 0.27832  0.12766  0.30197  Biso   1.000  Hf
  Hf48     1.0000 0.27139  0.11948  0.79144  Biso   1.000  Hf
  Hf49     1.0000 0.27272  0.61955  0.29147  Biso   1.000  Hf
  Hf50     1.0000 0.27223  0.62762  0.80196  Biso   1.000  Hf
  Hf51     1.0000 0.28419  0.13286  0.03417  Biso   1.000  Hf
  Hf52     1.0000 0.27000  0.11874  0.54673  Biso   1.000  Hf
  Hf53     1.0000 0.27134  0.61877  0.04674  Biso   1.000  Hf
  Hf54     1.0000 0.27811  0.63281  0.53418  Biso   1.000  Hf
  Hf55     1.0000 0.21872  0.37226  0.29120  Biso   1.000  Hf
  Hf56     1.0000 0.22955  0.36299  0.79947  Biso   1.000  Hf
  Hf57     1.0000 0.23089  0.86305  0.29949  Biso   1.000  Hf
  Hf58     1.0000 0.21262  0.87220  0.79119  Biso   1.000  Hf
  Hf59     1.0000 0.22129  0.37774  0.04471  Biso   1.000  Hf
  Hf60     1.0000 0.23934  0.36044  0.53316  Biso   1.000  Hf
  Hf61     1.0000 0.24066  0.86049  0.03316  Biso   1.000  Hf
  Hf62     1.0000 0.21522  0.87770  0.54472  Biso   1.000  Hf
  Hf63     1.0000 0.52979  0.16361  0.16645  Biso   1.000  Hf
  Hf64     1.0000 0.52886  0.16049  0.66822  Biso   1.000  Hf
  Hf65     1.0000 0.53017  0.66053  0.16826  Biso   1.000  Hf
  Hf66     1.0000 0.52370  0.66355  0.66644  Biso   1.000  Hf
  Hf67     1.0000 0.52873  0.08521  0.41814  Biso   1.000  Hf
  Hf68     1.0000 0.52955  0.08260  0.91588  Biso   1.000  Hf
  Hf69     1.0000 0.53088  0.58264  0.41591  Biso   1.000  Hf
  Hf70     1.0000 0.52265  0.58517  0.91814  Biso   1.000  Hf
  Hf71     1.0000 0.95824  0.42577  0.16248  Biso   1.000  Hf
  Hf72     1.0000 0.92149  0.42900  0.65740  Biso   1.000  Hf
  Hf73     1.0000 0.92280  0.92906  0.15740  Biso   1.000  Hf
  Hf74     1.0000 0.95215  0.92571  0.66246  Biso   1.000  Hf
  Hf75     1.0000 0.96464  0.33403  0.41722  Biso   1.000  Hf
  Hf76     1.0000 0.95510  0.33355  0.90473  Biso   1.000  Hf
  Hf77     1.0000 0.95644  0.83361  0.40471  Biso   1.000  Hf
  Hf78     1.0000 0.95854  0.83395  0.91723  Biso   1.000  Hf
  Hf79     1.0000 0.77070  0.12434  0.95646  Biso   1.000  Hf
  Hf80     1.0000 0.76635  0.12441  0.45725  Biso   1.000  Hf
  Hf81     1.0000 0.76028  0.62436  0.95723  Biso   1.000  Hf
  Hf82     1.0000 0.77201  0.62439  0.45646  Biso   1.000  Hf
  Hf83     1.0000 0.77094  0.13055  0.20723  Biso   1.000  Hf
  Hf84     1.0000 0.77117  0.12639  0.70699  Biso   1.000  Hf
  Hf85     1.0000 0.77249  0.62642  0.20698  Biso   1.000  Hf
  Hf86     1.0000 0.76487  0.63051  0.70720  Biso   1.000  Hf
  Hf87     1.0000 0.71441  0.37438  0.95703  Biso   1.000  Hf
  Hf88     1.0000 0.72024  0.37386  0.45472  Biso   1.000  Hf
  Hf89     1.0000 0.71415  0.87382  0.95472  Biso   1.000  Hf
  Hf90     1.0000 0.71573  0.87443  0.45704  Biso   1.000  Hf
  Hf91     1.0000 0.72080  0.37722  0.20669  Biso   1.000  Hf
  Hf92     1.0000 0.70438  0.37452  0.70787  Biso   1.000  Hf
  Hf93     1.0000 0.70570  0.87456  0.20789  Biso   1.000  Hf
  Hf94     1.0000 0.71471  0.87717  0.70668  Biso   1.000  Hf
