data_image0
_cell_length_a       10.0777
_cell_length_b       10.2329
_cell_length_c       10.0774
_cell_angle_alpha    90
_cell_angle_beta     90
_cell_angle_gamma    90

_symmetry_space_group_name_H-M    "P 1"
_symmetry_int_tables_number       1

loop_
  _symmetry_equiv_pos_as_xyz
  'x, y, z'

loop_
  _atom_site_label
  _atom_site_occupancy
  _atom_site_fract_x
  _atom_site_fract_y
  _atom_site_fract_z
  _atom_site_thermal_displace_type
  _atom_site_B_iso_or_equiv
  _atom_site_type_symbol
  Hf1      1.0000 0.14209  0.00273  0.14118  Biso   1.000  Hf
  Hf2      1.0000 0.13832  0.00211  0.62296  Biso   1.000  Hf
  Hf3      1.0000 0.13078  0.50921  0.12703  Biso   1.000  Hf
  Hf4      1.0000 0.12742  0.50141  0.62349  Biso   1.000  Hf
  Hf5      1.0000 0.62990  0.99929  0.12872  Biso   1.000  Hf
  Hf6      1.0000 0.63191  0.00261  0.62212  Biso   1.000  Hf
  Hf7      1.0000 0.62712  0.49880  0.12092  Biso   1.000  Hf
  Hf8      1.0000 0.62704  0.49897  0.62062  Biso   1.000  Hf
  Hf9      1.0000 0.12723  0.25461  0.37486  Biso   1.000  Hf
  La1      1.0000 0.12600  0.24747  0.87863  Biso   1.000  La
  Hf10     1.0000 0.13097  0.74982  0.37645  Biso   1.000  Hf
  Hf11     1.0000 0.14572  0.74670  0.86795  Biso   1.000  Hf
  Hf12     1.0000 0.62749  0.24962  0.37252  Biso   1.000  Hf
  Hf13     1.0000 0.62709  0.25234  0.87449  Biso   1.000  Hf
  Hf14     1.0000 0.63205  0.74871  0.37768  Biso   1.000  Hf
  Hf15     1.0000 0.63893  0.75416  0.87730  Biso   1.000  Hf
  Hf16     1.0000 0.37717  0.25325  0.12340  Biso   1.000  Hf
  Hf17     1.0000 0.37777  0.25080  0.62365  Biso   1.000  Hf
  Hf18     1.0000 0.38150  0.74854  0.12449  Biso   1.000  Hf
  Hf19     1.0000 0.38548  0.75022  0.62561  Biso   1.000  Hf
  La2      1.0000 0.88089  0.24352  0.11949  Biso   1.000  La
  Hf20     1.0000 0.87968  0.25093  0.62054  Biso   1.000  Hf
  Hf21     1.0000 0.87308  0.74276  0.13640  Biso   1.000  Hf
  Hf22     1.0000 0.88529  0.75289  0.62963  Biso   1.000  Hf
  Hf23     1.0000 0.38677  0.00052  0.37835  Biso   1.000  Hf
  Hf24     1.0000 0.38624  0.00151  0.87467  Biso   1.000  Hf
  Hf25     1.0000 0.37875  0.49853  0.37372  Biso   1.000  Hf
  Hf26     1.0000 0.38160  0.49869  0.87138  Biso   1.000  Hf
  Hf27     1.0000 0.88287  0.99873  0.37514  Biso   1.000  Hf
  Hf28     1.0000 0.86567  0.00554  0.86069  Biso   1.000  Hf
  Hf29     1.0000 0.87654  0.49613  0.37377  Biso   1.000  Hf
  Hf30     1.0000 0.87192  0.50120  0.86399  Biso   1.000  Hf
  Hf31     1.0000 0.00609  0.15046  0.49938  Biso   1.000  Hf
  Hf32     1.0000 0.02072  0.68466  0.01661  Biso   1.000  Hf
  Hf33     1.0000 0.00983  0.65000  0.50824  Biso   1.000  Hf
  Hf34     1.0000 0.50013  0.14781  0.00174  Biso   1.000  Hf
  Hf35     1.0000 0.50525  0.14674  0.50113  Biso   1.000  Hf
  Hf36     1.0000 0.51220  0.64738  0.00337  Biso   1.000  Hf
  Hf37     1.0000 0.50692  0.64684  0.50045  Biso   1.000  Hf
  Hf38     1.0000 0.01205  0.10390  0.26260  Biso   1.000  Hf
  Hf39     1.0000 0.99594  0.10355  0.73665  Biso   1.000  Hf
  Hf40     1.0000 0.99839  0.60975  0.25747  Biso   1.000  Hf
  Hf41     1.0000 0.01545  0.60996  0.75865  Biso   1.000  Hf
  Hf42     1.0000 0.49828  0.10057  0.24978  Biso   1.000  Hf
  Hf43     1.0000 0.51053  0.10072  0.75393  Biso   1.000  Hf
  Hf44     1.0000 0.49745  0.60122  0.24720  Biso   1.000  Hf
  Hf45     1.0000 0.51398  0.60275  0.75282  Biso   1.000  Hf
  Hf46     1.0000 0.01513  0.36747  0.25368  Biso   1.000  Hf
  Hf47     1.0000 0.99144  0.36775  0.74035  Biso   1.000  Hf
  Hf48     1.0000 0.01443  0.85807  0.23893  Biso   1.000  Hf
  Hf49     1.0000 0.00017  0.85665  0.77064  Biso   1.000  Hf
  Hf50     1.0000 0.50613  0.35059  0.24803  Biso   1.000  Hf
  Hf51     1.0000 0.50093  0.35123  0.74812  Biso   1.000  Hf
  Hf52     1.0000 0.51339  0.85035  0.24834  Biso   1.000  Hf
  Hf53     1.0000 0.50387  0.85106  0.75409  Biso   1.000  Hf
  Hf54     1.0000 0.00606  0.42852  0.99776  Biso   1.000  Hf
  Hf55     1.0000 0.00389  0.39876  0.49804  Biso   1.000  Hf
  Hf56     1.0000 0.00075  0.05261  0.00049  Biso   1.000  Hf
  Hf57     1.0000 0.00817  0.89748  0.50334  Biso   1.000  Hf
  Hf58     1.0000 0.50629  0.40143  0.99845  Biso   1.000  Hf
  Hf59     1.0000 0.50334  0.39676  0.49788  Biso   1.000  Hf
  Hf60     1.0000 0.50846  0.89483  0.00022  Biso   1.000  Hf
  Hf61     1.0000 0.50906  0.89588  0.50114  Biso   1.000  Hf
  Hf62     1.0000 0.25211  0.14750  0.24964  Biso   1.000  Hf
  Hf63     1.0000 0.26479  0.13303  0.74126  Biso   1.000  Hf
  Hf64     1.0000 0.24788  0.64956  0.24269  Biso   1.000  Hf
  Hf65     1.0000 0.26350  0.64173  0.74284  Biso   1.000  Hf
  Hf66     1.0000 0.74370  0.13040  0.25968  Biso   1.000  Hf
  Hf67     1.0000 0.75604  0.14866  0.75077  Biso   1.000  Hf
  Hf68     1.0000 0.74805  0.63916  0.25550  Biso   1.000  Hf
  Hf69     1.0000 0.76383  0.64855  0.75570  Biso   1.000  Hf
  Hf70     1.0000 0.26319  0.10249  0.00985  Biso   1.000  Hf
  Hf71     1.0000 0.25369  0.10183  0.49610  Biso   1.000  Hf
  Hf72     1.0000 0.26681  0.61368  0.99330  Biso   1.000  Hf
  Hf73     1.0000 0.25336  0.60249  0.49241  Biso   1.000  Hf
  Hf74     1.0000 0.74288  0.10506  0.99109  Biso   1.000  Hf
  Hf75     1.0000 0.75789  0.09940  0.50560  Biso   1.000  Hf
  Hf76     1.0000 0.76236  0.60601  0.00753  Biso   1.000  Hf
  Hf77     1.0000 0.75904  0.60143  0.50604  Biso   1.000  Hf
  Hf78     1.0000 0.25605  0.36616  0.01124  Biso   1.000  Hf
  Hf79     1.0000 0.25332  0.35193  0.50235  Biso   1.000  Hf
  Hf80     1.0000 0.24389  0.85680  0.00822  Biso   1.000  Hf
  Hf81     1.0000 0.25596  0.85168  0.50714  Biso   1.000  Hf
  Hf82     1.0000 0.74827  0.36908  0.98481  Biso   1.000  Hf
  Hf83     1.0000 0.75332  0.34984  0.49436  Biso   1.000  Hf
  Hf84     1.0000 0.78102  0.85798  0.99108  Biso   1.000  Hf
  Hf85     1.0000 0.76157  0.84972  0.49488  Biso   1.000  Hf
  Hf86     1.0000 0.25704  0.39938  0.25296  Biso   1.000  Hf
  Hf87     1.0000 0.25765  0.39772  0.74586  Biso   1.000  Hf
  Hf88     1.0000 0.26711  0.89152  0.26056  Biso   1.000  Hf
  Hf89     1.0000 0.25496  0.89241  0.75579  Biso   1.000  Hf
  Hf90     1.0000 0.74984  0.39514  0.25091  Biso   1.000  Hf
  Hf91     1.0000 0.74849  0.39699  0.74163  Biso   1.000  Hf
  Hf92     1.0000 0.76232  0.88959  0.24564  Biso   1.000  Hf
  Hf93     1.0000 0.75069  0.89371  0.74149  Biso   1.000  Hf
