data_image0
_cell_length_a       10.0476
_cell_length_b       10.4091
_cell_length_c       10.1014
_cell_angle_alpha    90
_cell_angle_beta     90
_cell_angle_gamma    90

_symmetry_space_group_name_H-M    "P 1"
_symmetry_int_tables_number       1

loop_
  _symmetry_equiv_pos_as_xyz
  'x, y, z'

loop_
  _atom_site_label
  _atom_site_occupancy
  _atom_site_fract_x
  _atom_site_fract_y
  _atom_site_fract_z
  _atom_site_thermal_displace_type
  _atom_site_B_iso_or_equiv
  _atom_site_type_symbol
  La1      1.0000 0.11927  0.00267  0.11829  Biso   1.000  La
  Hf1      1.0000 0.13208  0.01292  0.62428  Biso   1.000  Hf
  Hf2      1.0000 0.13523  0.51474  0.12559  Biso   1.000  Hf
  Hf3      1.0000 0.13329  0.51331  0.62472  Biso   1.000  Hf
  Hf4      1.0000 0.63875  0.01128  0.12750  Biso   1.000  Hf
  Hf5      1.0000 0.63205  0.01313  0.62496  Biso   1.000  Hf
  Hf6      1.0000 0.63541  0.51664  0.12694  Biso   1.000  Hf
  Hf7      1.0000 0.63260  0.51430  0.62533  Biso   1.000  Hf
  Hf8      1.0000 0.13357  0.23365  0.37761  Biso   1.000  Hf
  Hf9      1.0000 0.12736  0.23553  0.86525  Biso   1.000  Hf
  Hf10     1.0000 0.13497  0.73019  0.37662  Biso   1.000  Hf
  Hf11     1.0000 0.13496  0.72855  0.87574  Biso   1.000  Hf
  Hf12     1.0000 0.63732  0.23176  0.38167  Biso   1.000  Hf
  Hf13     1.0000 0.63653  0.22872  0.87275  Biso   1.000  Hf
  Hf14     1.0000 0.63194  0.73042  0.38018  Biso   1.000  Hf
  Hf15     1.0000 0.63406  0.72770  0.87535  Biso   1.000  Hf
  La2      1.0000 0.37407  0.25313  0.11988  Biso   1.000  La
  Hf16     1.0000 0.36751  0.26412  0.62403  Biso   1.000  Hf
  Hf17     1.0000 0.37004  0.76257  0.12359  Biso   1.000  Hf
  Hf18     1.0000 0.36493  0.76361  0.62487  Biso   1.000  Hf
  Hf19     1.0000 0.86078  0.26764  0.12699  Biso   1.000  Hf
  Hf20     1.0000 0.86606  0.26619  0.62502  Biso   1.000  Hf
  Hf21     1.0000 0.86141  0.76121  0.12893  Biso   1.000  Hf
  Hf22     1.0000 0.86624  0.76106  0.62636  Biso   1.000  Hf
  Hf23     1.0000 0.36376  0.48175  0.37588  Biso   1.000  Hf
  Hf24     1.0000 0.36532  0.48184  0.87095  Biso   1.000  Hf
  Hf25     1.0000 0.36510  0.98011  0.37607  Biso   1.000  Hf
  Hf26     1.0000 0.36760  0.97888  0.87114  Biso   1.000  Hf
  Hf27     1.0000 0.86617  0.48239  0.37639  Biso   1.000  Hf
  Hf28     1.0000 0.86437  0.47956  0.87706  Biso   1.000  Hf
  Hf29     1.0000 0.86337  0.97989  0.38607  Biso   1.000  Hf
  Hf30     1.0000 0.86042  0.97738  0.87167  Biso   1.000  Hf
  Hf31     1.0000 0.02718  0.19765  0.20364  Biso   1.000  Hf
  Hf32     1.0000 0.03794  0.18511  0.68247  Biso   1.000  Hf
  Hf33     1.0000 0.03586  0.68488  0.19656  Biso   1.000  Hf
  Hf34     1.0000 0.03372  0.67957  0.69744  Biso   1.000  Hf
  Hf35     1.0000 0.56475  0.18052  0.20154  Biso   1.000  Hf
  Hf36     1.0000 0.53717  0.18026  0.69247  Biso   1.000  Hf
  Hf37     1.0000 0.53826  0.68490  0.19758  Biso   1.000  Hf
  Hf38     1.0000 0.53333  0.68035  0.69752  Biso   1.000  Hf
  Hf39     1.0000 0.03321  0.06367  0.44528  Biso   1.000  Hf
  Hf40     1.0000 0.02146  0.07506  0.91727  Biso   1.000  Hf
  Hf41     1.0000 0.03524  0.56385  0.44675  Biso   1.000  Hf
  Hf42     1.0000 0.03078  0.56731  0.94618  Biso   1.000  Hf
  Hf43     1.0000 0.53616  0.06319  0.44664  Biso   1.000  Hf
  Hf44     1.0000 0.52905  0.06991  0.95325  Biso   1.000  Hf
  Hf45     1.0000 0.53419  0.56479  0.44707  Biso   1.000  Hf
  Hf46     1.0000 0.53209  0.56584  0.94942  Biso   1.000  Hf
  Hf47     1.0000 0.47064  0.44319  0.20311  Biso   1.000  Hf
  Hf48     1.0000 0.46146  0.43510  0.68498  Biso   1.000  Hf
  Hf49     1.0000 0.46189  0.93893  0.19245  Biso   1.000  Hf
  Hf50     1.0000 0.46466  0.92970  0.69474  Biso   1.000  Hf
  Hf51     1.0000 0.95953  0.43925  0.19243  Biso   1.000  Hf
  Hf52     1.0000 0.96660  0.43026  0.69999  Biso   1.000  Hf
  Hf53     1.0000 0.93790  0.92377  0.20973  Biso   1.000  Hf
  Hf54     1.0000 0.96135  0.92933  0.69305  Biso   1.000  Hf
  Hf55     1.0000 0.46355  0.31177  0.44057  Biso   1.000  Hf
  Hf56     1.0000 0.46945  0.32103  0.91753  Biso   1.000  Hf
  Hf57     1.0000 0.46558  0.81388  0.44929  Biso   1.000  Hf
  Hf58     1.0000 0.47392  0.81739  0.94670  Biso   1.000  Hf
  Hf59     1.0000 0.96277  0.31769  0.44793  Biso   1.000  Hf
  Hf60     1.0000 0.96092  0.31555  0.94694  Biso   1.000  Hf
  Hf61     1.0000 0.96558  0.81224  0.44984  Biso   1.000  Hf
  Hf62     1.0000 0.97465  0.82253  0.95816  Biso   1.000  Hf
  Hf63     1.0000 0.26338  0.11259  0.26604  Biso   1.000  Hf
  Hf64     1.0000 0.27197  0.11445  0.74145  Biso   1.000  Hf
  Hf65     1.0000 0.27116  0.61341  0.24821  Biso   1.000  Hf
  Hf66     1.0000 0.26819  0.61551  0.74764  Biso   1.000  Hf
  Hf67     1.0000 0.77863  0.11402  0.25424  Biso   1.000  Hf
  Hf68     1.0000 0.76868  0.11362  0.74942  Biso   1.000  Hf
  Hf69     1.0000 0.76980  0.61678  0.25118  Biso   1.000  Hf
  Hf70     1.0000 0.76940  0.61303  0.74937  Biso   1.000  Hf
  Hf71     1.0000 0.26982  0.12912  0.50323  Biso   1.000  Hf
  Hf72     1.0000 0.25883  0.12287  0.97340  Biso   1.000  Hf
  Hf73     1.0000 0.26926  0.63052  0.49931  Biso   1.000  Hf
  Hf74     1.0000 0.26929  0.62636  0.99910  Biso   1.000  Hf
  Hf75     1.0000 0.76936  0.13022  0.50404  Biso   1.000  Hf
  Hf76     1.0000 0.77036  0.12938  0.00123  Biso   1.000  Hf
  Hf77     1.0000 0.76973  0.62942  0.50010  Biso   1.000  Hf
  Hf78     1.0000 0.76919  0.62685  0.99863  Biso   1.000  Hf
  Hf79     1.0000 0.23091  0.37988  0.50051  Biso   1.000  Hf
  Hf80     1.0000 0.22320  0.38435  0.98967  Biso   1.000  Hf
  Hf81     1.0000 0.22871  0.88046  0.49930  Biso   1.000  Hf
  Hf82     1.0000 0.24434  0.86573  0.98888  Biso   1.000  Hf
  Hf83     1.0000 0.73027  0.38171  0.50148  Biso   1.000  Hf
  Hf84     1.0000 0.72647  0.38227  0.00022  Biso   1.000  Hf
  Hf85     1.0000 0.72853  0.87755  0.50300  Biso   1.000  Hf
  Hf86     1.0000 0.73299  0.87840  0.00008  Biso   1.000  Hf
  Hf87     1.0000 0.21798  0.37502  0.25513  Biso   1.000  Hf
  Hf88     1.0000 0.23077  0.36602  0.74422  Biso   1.000  Hf
  Hf89     1.0000 0.24362  0.85168  0.25544  Biso   1.000  Hf
  Hf90     1.0000 0.22802  0.86429  0.74605  Biso   1.000  Hf
  Hf91     1.0000 0.73152  0.36766  0.25359  Biso   1.000  Hf
  Hf92     1.0000 0.73002  0.36502  0.74960  Biso   1.000  Hf
  Hf93     1.0000 0.71734  0.86327  0.25190  Biso   1.000  Hf
  Hf94     1.0000 0.72855  0.86206  0.74957  Biso   1.000  Hf
