data_image0
_cell_length_a       10.202
_cell_length_b       10.3367
_cell_length_c       10.453
_cell_angle_alpha    90
_cell_angle_beta     80
_cell_angle_gamma    90

_symmetry_space_group_name_H-M    "P 1"
_symmetry_int_tables_number       1

loop_
  _symmetry_equiv_pos_as_xyz
  'x, y, z'

loop_
  _atom_site_label
  _atom_site_occupancy
  _atom_site_fract_x
  _atom_site_fract_y
  _atom_site_fract_z
  _atom_site_thermal_displace_type
  _atom_site_B_iso_or_equiv
  _atom_site_type_symbol
  La1      1.0000 0.12569  0.00871  0.13702  Biso   1.000  La
  Hf1      1.0000 0.12917  0.02112  0.64713  Biso   1.000  Hf
  La2      1.0000 0.12245  0.50864  0.13701  Biso   1.000  La
  Hf2      1.0000 0.12595  0.52109  0.64714  Biso   1.000  Hf
  Hf3      1.0000 0.63822  0.01734  0.14761  Biso   1.000  Hf
  Hf4      1.0000 0.62938  0.02114  0.64903  Biso   1.000  Hf
  Hf5      1.0000 0.63502  0.51733  0.14760  Biso   1.000  Hf
  Hf6      1.0000 0.62616  0.52111  0.64902  Biso   1.000  Hf
  Hf7      1.0000 0.13075  0.22546  0.39706  Biso   1.000  Hf
  Hf8      1.0000 0.12531  0.23250  0.89436  Biso   1.000  Hf
  Hf9      1.0000 0.12755  0.72544  0.39705  Biso   1.000  Hf
  Hf10     1.0000 0.12211  0.73248  0.89434  Biso   1.000  Hf
  Hf11     1.0000 0.62558  0.22774  0.39985  Biso   1.000  Hf
  Hf12     1.0000 0.62788  0.22874  0.89743  Biso   1.000  Hf
  Hf13     1.0000 0.62237  0.72775  0.39983  Biso   1.000  Hf
  Hf14     1.0000 0.62467  0.72873  0.89742  Biso   1.000  Hf
  Hf15     1.0000 0.36309  0.26383  0.10263  Biso   1.000  Hf
  Hf16     1.0000 0.34789  0.27076  0.60446  Biso   1.000  Hf
  Hf17     1.0000 0.35987  0.76381  0.10261  Biso   1.000  Hf
  Hf18     1.0000 0.34469  0.77074  0.60445  Biso   1.000  Hf
  Hf19     1.0000 0.85382  0.26756  0.10419  Biso   1.000  Hf
  Hf20     1.0000 0.85200  0.27203  0.60611  Biso   1.000  Hf
  Hf21     1.0000 0.85064  0.76754  0.10415  Biso   1.000  Hf
  Hf22     1.0000 0.84881  0.77202  0.60610  Biso   1.000  Hf
  Hf23     1.0000 0.35055  0.47766  0.35326  Biso   1.000  Hf
  Hf24     1.0000 0.34952  0.47774  0.85323  Biso   1.000  Hf
  Hf25     1.0000 0.34732  0.97763  0.35326  Biso   1.000  Hf
  Hf26     1.0000 0.34628  0.97772  0.85322  Biso   1.000  Hf
  Hf27     1.0000 0.84324  0.48030  0.36257  Biso   1.000  Hf
  Hf28     1.0000 0.84616  0.47887  0.85680  Biso   1.000  Hf
  Hf29     1.0000 0.84002  0.98027  0.36256  Biso   1.000  Hf
  Hf30     1.0000 0.84294  0.97885  0.85680  Biso   1.000  Hf
  Hf31     1.0000 0.04039  0.20679  0.08620  Biso   1.000  Hf
  Hf32     1.0000 0.02791  0.17543  0.58889  Biso   1.000  Hf
  Hf33     1.0000 0.03718  0.70672  0.08615  Biso   1.000  Hf
  Hf34     1.0000 0.02470  0.67540  0.58888  Biso   1.000  Hf
  Hf35     1.0000 0.53786  0.16573  0.07896  Biso   1.000  Hf
  Hf36     1.0000 0.52173  0.16645  0.58366  Biso   1.000  Hf
  Hf37     1.0000 0.53464  0.66572  0.07895  Biso   1.000  Hf
  Hf38     1.0000 0.51853  0.66643  0.58365  Biso   1.000  Hf
  Hf39     1.0000 0.01859  0.08021  0.34752  Biso   1.000  Hf
  Hf40     1.0000 0.02694  0.07413  0.84060  Biso   1.000  Hf
  Hf41     1.0000 0.01539  0.58020  0.34748  Biso   1.000  Hf
  Hf42     1.0000 0.02373  0.57413  0.84055  Biso   1.000  Hf
  Hf43     1.0000 0.52833  0.07906  0.33164  Biso   1.000  Hf
  Hf44     1.0000 0.52621  0.08073  0.83120  Biso   1.000  Hf
  Hf45     1.0000 0.52514  0.57906  0.33161  Biso   1.000  Hf
  Hf46     1.0000 0.52300  0.58073  0.83119  Biso   1.000  Hf
  Hf47     1.0000 0.46080  0.41681  0.16892  Biso   1.000  Hf
  Hf48     1.0000 0.45332  0.41673  0.67082  Biso   1.000  Hf
  Hf49     1.0000 0.45757  0.91683  0.16889  Biso   1.000  Hf
  Hf50     1.0000 0.45011  0.91673  0.67080  Biso   1.000  Hf
  Hf51     1.0000 0.91332  0.43779  0.16769  Biso   1.000  Hf
  Hf52     1.0000 0.94964  0.42482  0.66874  Biso   1.000  Hf
  Hf53     1.0000 0.91015  0.93768  0.16774  Biso   1.000  Hf
  Hf54     1.0000 0.94643  0.92483  0.66874  Biso   1.000  Hf
  Hf55     1.0000 0.45310  0.32969  0.42250  Biso   1.000  Hf
  Hf56     1.0000 0.46059  0.33420  0.92078  Biso   1.000  Hf
  Hf57     1.0000 0.44987  0.82966  0.42250  Biso   1.000  Hf
  Hf58     1.0000 0.45737  0.83418  0.92075  Biso   1.000  Hf
  Hf59     1.0000 0.95377  0.33016  0.41719  Biso   1.000  Hf
  Hf60     1.0000 0.94496  0.32702  0.91507  Biso   1.000  Hf
  Hf61     1.0000 0.95055  0.83013  0.41722  Biso   1.000  Hf
  Hf62     1.0000 0.94173  0.82699  0.91507  Biso   1.000  Hf
  Hf63     1.0000 0.27646  0.12678  0.24577  Biso   1.000  Hf
  Hf64     1.0000 0.26397  0.12927  0.73967  Biso   1.000  Hf
  Hf65     1.0000 0.27324  0.62675  0.24574  Biso   1.000  Hf
  Hf66     1.0000 0.26075  0.62925  0.73965  Biso   1.000  Hf
  Hf67     1.0000 0.76596  0.13345  0.24639  Biso   1.000  Hf
  Hf68     1.0000 0.76665  0.12979  0.74287  Biso   1.000  Hf
  Hf69     1.0000 0.76274  0.63345  0.24636  Biso   1.000  Hf
  Hf70     1.0000 0.76342  0.62977  0.74284  Biso   1.000  Hf
  Hf71     1.0000 0.26547  0.11975  0.49260  Biso   1.000  Hf
  Hf72     1.0000 0.26833  0.12261  0.98204  Biso   1.000  Hf
  Hf73     1.0000 0.26225  0.61974  0.49260  Biso   1.000  Hf
  Hf74     1.0000 0.26510  0.62259  0.98204  Biso   1.000  Hf
  Hf75     1.0000 0.76261  0.12214  0.49623  Biso   1.000  Hf
  Hf76     1.0000 0.76148  0.11851  0.99437  Biso   1.000  Hf
  Hf77     1.0000 0.75940  0.62212  0.49621  Biso   1.000  Hf
  Hf78     1.0000 0.75824  0.61849  0.99436  Biso   1.000  Hf
  Hf79     1.0000 0.22675  0.36706  0.99468  Biso   1.000  Hf
  Hf80     1.0000 0.21213  0.37976  0.51012  Biso   1.000  Hf
  Hf81     1.0000 0.22352  0.86704  0.99468  Biso   1.000  Hf
  Hf82     1.0000 0.20889  0.87975  0.51013  Biso   1.000  Hf
  Hf83     1.0000 0.72212  0.37782  0.00852  Biso   1.000  Hf
  Hf84     1.0000 0.71237  0.37850  0.51396  Biso   1.000  Hf
  Hf85     1.0000 0.71890  0.87782  0.00852  Biso   1.000  Hf
  Hf86     1.0000 0.70915  0.87848  0.51396  Biso   1.000  Hf
  Hf87     1.0000 0.22688  0.35855  0.26165  Biso   1.000  Hf
  Hf88     1.0000 0.21005  0.37189  0.75648  Biso   1.000  Hf
  Hf89     1.0000 0.22365  0.85852  0.26163  Biso   1.000  Hf
  Hf90     1.0000 0.20682  0.87187  0.75644  Biso   1.000  Hf
  Hf91     1.0000 0.70215  0.37073  0.26786  Biso   1.000  Hf
  Hf92     1.0000 0.71283  0.37073  0.76041  Biso   1.000  Hf
  Hf93     1.0000 0.69887  0.87074  0.26787  Biso   1.000  Hf
  Hf94     1.0000 0.70961  0.87072  0.76039  Biso   1.000  Hf
