data_image0
_cell_length_a       10.1146
_cell_length_b       10.3099
_cell_length_c       10.4537
_cell_angle_alpha    90
_cell_angle_beta     90
_cell_angle_gamma    90

_symmetry_space_group_name_H-M    "P 1"
_symmetry_int_tables_number       1

loop_
  _symmetry_equiv_pos_as_xyz
  'x, y, z'

loop_
  _atom_site_label
  _atom_site_occupancy
  _atom_site_fract_x
  _atom_site_fract_y
  _atom_site_fract_z
  _atom_site_thermal_displace_type
  _atom_site_B_iso_or_equiv
  _atom_site_type_symbol
  La1      1.0000 0.12649  0.00854  0.15906  Biso   1.000  La
  Hf1      1.0000 0.13145  0.01987  0.67074  Biso   1.000  Hf
  La2      1.0000 0.12389  0.50864  0.15909  Biso   1.000  La
  Hf2      1.0000 0.12880  0.51990  0.67075  Biso   1.000  Hf
  Hf3      1.0000 0.13248  0.22540  0.42155  Biso   1.000  Hf
  Hf4      1.0000 0.12941  0.23162  0.91614  Biso   1.000  Hf
  Hf5      1.0000 0.12984  0.72540  0.42155  Biso   1.000  Hf
  Hf6      1.0000 0.12676  0.73162  0.91613  Biso   1.000  Hf
  Hf7      1.0000 0.36142  0.26429  0.16921  Biso   1.000  Hf
  Hf8      1.0000 0.35159  0.26904  0.66962  Biso   1.000  Hf
  Hf9      1.0000 0.35880  0.76433  0.16921  Biso   1.000  Hf
  Hf10     1.0000 0.34896  0.76905  0.66962  Biso   1.000  Hf
  Hf11     1.0000 0.35183  0.47686  0.42016  Biso   1.000  Hf
  Hf12     1.0000 0.35370  0.47824  0.91795  Biso   1.000  Hf
  Hf13     1.0000 0.34919  0.97687  0.42013  Biso   1.000  Hf
  Hf14     1.0000 0.35106  0.97827  0.91794  Biso   1.000  Hf
  Hf15     1.0000 0.64102  0.01877  0.08026  Biso   1.000  Hf
  Hf16     1.0000 0.63084  0.01922  0.58105  Biso   1.000  Hf
  Hf17     1.0000 0.63837  0.51879  0.08025  Biso   1.000  Hf
  Hf18     1.0000 0.62819  0.51925  0.58105  Biso   1.000  Hf
  Hf19     1.0000 0.63261  0.22800  0.33201  Biso   1.000  Hf
  Hf20     1.0000 0.62941  0.22847  0.82772  Biso   1.000  Hf
  Hf21     1.0000 0.63000  0.72798  0.33201  Biso   1.000  Hf
  Hf22     1.0000 0.62678  0.72847  0.82771  Biso   1.000  Hf
  Hf23     1.0000 0.85576  0.26765  0.07726  Biso   1.000  Hf
  Hf24     1.0000 0.85539  0.27087  0.58056  Biso   1.000  Hf
  Hf25     1.0000 0.85311  0.76767  0.07725  Biso   1.000  Hf
  Hf26     1.0000 0.85275  0.77089  0.58055  Biso   1.000  Hf
  Hf27     1.0000 0.84726  0.48108  0.33666  Biso   1.000  Hf
  Hf28     1.0000 0.85020  0.47860  0.82948  Biso   1.000  Hf
  Hf29     1.0000 0.84460  0.98110  0.33665  Biso   1.000  Hf
  Hf30     1.0000 0.84756  0.97862  0.82949  Biso   1.000  Hf
  Hf31     1.0000 0.03990  0.20527  0.09219  Biso   1.000  Hf
  Hf32     1.0000 0.02940  0.17411  0.59437  Biso   1.000  Hf
  Hf33     1.0000 0.03727  0.70538  0.09222  Biso   1.000  Hf
  Hf34     1.0000 0.02674  0.67412  0.59439  Biso   1.000  Hf
  Hf35     1.0000 0.02077  0.07964  0.35150  Biso   1.000  Hf
  Hf36     1.0000 0.02902  0.07411  0.84447  Biso   1.000  Hf
  Hf37     1.0000 0.01813  0.57966  0.35150  Biso   1.000  Hf
  Hf38     1.0000 0.02639  0.57412  0.84447  Biso   1.000  Hf
  Hf39     1.0000 0.46967  0.41329  0.08291  Biso   1.000  Hf
  Hf40     1.0000 0.45845  0.41272  0.58283  Biso   1.000  Hf
  Hf41     1.0000 0.46706  0.91332  0.08293  Biso   1.000  Hf
  Hf42     1.0000 0.45581  0.91274  0.58284  Biso   1.000  Hf
  Hf43     1.0000 0.46602  0.33619  0.33260  Biso   1.000  Hf
  Hf44     1.0000 0.45898  0.33360  0.82967  Biso   1.000  Hf
  Hf45     1.0000 0.46340  0.83616  0.33262  Biso   1.000  Hf
  Hf46     1.0000 0.45634  0.83358  0.82967  Biso   1.000  Hf
  Hf47     1.0000 0.27673  0.12253  0.29994  Biso   1.000  Hf
  Hf48     1.0000 0.26688  0.12379  0.79112  Biso   1.000  Hf
  Hf49     1.0000 0.27411  0.62255  0.29994  Biso   1.000  Hf
  Hf50     1.0000 0.26424  0.62380  0.79112  Biso   1.000  Hf
  Hf51     1.0000 0.28346  0.12569  0.03502  Biso   1.000  Hf
  Hf52     1.0000 0.26785  0.12339  0.54479  Biso   1.000  Hf
  Hf53     1.0000 0.28082  0.62569  0.03503  Biso   1.000  Hf
  Hf54     1.0000 0.26520  0.62339  0.54481  Biso   1.000  Hf
  Hf55     1.0000 0.22702  0.36100  0.29875  Biso   1.000  Hf
  Hf56     1.0000 0.21447  0.37342  0.78991  Biso   1.000  Hf
  Hf57     1.0000 0.22438  0.86100  0.29875  Biso   1.000  Hf
  Hf58     1.0000 0.21181  0.87341  0.78991  Biso   1.000  Hf
  Hf59     1.0000 0.24335  0.36353  0.03102  Biso   1.000  Hf
  Hf60     1.0000 0.21486  0.37578  0.54444  Biso   1.000  Hf
  Hf61     1.0000 0.24074  0.86352  0.03099  Biso   1.000  Hf
  Hf62     1.0000 0.21221  0.87579  0.54443  Biso   1.000  Hf
  Hf63     1.0000 0.53150  0.16105  0.16765  Biso   1.000  Hf
  Hf64     1.0000 0.52389  0.16310  0.66602  Biso   1.000  Hf
  Hf65     1.0000 0.52884  0.66102  0.16767  Biso   1.000  Hf
  Hf66     1.0000 0.52123  0.66308  0.66603  Biso   1.000  Hf
  Hf67     1.0000 0.52734  0.08216  0.41751  Biso   1.000  Hf
  Hf68     1.0000 0.52668  0.08343  0.91591  Biso   1.000  Hf
  Hf69     1.0000 0.52470  0.58218  0.41754  Biso   1.000  Hf
  Hf70     1.0000 0.52403  0.58343  0.91592  Biso   1.000  Hf
  Hf71     1.0000 0.91704  0.43655  0.15431  Biso   1.000  Hf
  Hf72     1.0000 0.95358  0.42370  0.66104  Biso   1.000  Hf
  Hf73     1.0000 0.91431  0.93666  0.15423  Biso   1.000  Hf
  Hf74     1.0000 0.95094  0.92371  0.66103  Biso   1.000  Hf
  Hf75     1.0000 0.95708  0.32975  0.41057  Biso   1.000  Hf
  Hf76     1.0000 0.95153  0.32804  0.90658  Biso   1.000  Hf
  Hf77     1.0000 0.95443  0.82973  0.41055  Biso   1.000  Hf
  Hf78     1.0000 0.94888  0.82801  0.90656  Biso   1.000  Hf
  Hf79     1.0000 0.76639  0.12150  0.95576  Biso   1.000  Hf
  Hf80     1.0000 0.76688  0.12410  0.46011  Biso   1.000  Hf
  Hf81     1.0000 0.76375  0.62150  0.95577  Biso   1.000  Hf
  Hf82     1.0000 0.76425  0.62409  0.46011  Biso   1.000  Hf
  Hf83     1.0000 0.77122  0.13130  0.21010  Biso   1.000  Hf
  Hf84     1.0000 0.76766  0.12624  0.70684  Biso   1.000  Hf
  Hf85     1.0000 0.76861  0.63128  0.21006  Biso   1.000  Hf
  Hf86     1.0000 0.76502  0.62623  0.70682  Biso   1.000  Hf
  Hf87     1.0000 0.71098  0.37248  0.95459  Biso   1.000  Hf
  Hf88     1.0000 0.71643  0.37341  0.45944  Biso   1.000  Hf
  Hf89     1.0000 0.70832  0.87248  0.95458  Biso   1.000  Hf
  Hf90     1.0000 0.71378  0.87341  0.45943  Biso   1.000  Hf
  Hf91     1.0000 0.70613  0.37669  0.21130  Biso   1.000  Hf
  Hf92     1.0000 0.71548  0.37463  0.70580  Biso   1.000  Hf
  Hf93     1.0000 0.70348  0.87666  0.21131  Biso   1.000  Hf
  Hf94     1.0000 0.71283  0.87464  0.70580  Biso   1.000  Hf
