data_image0
_cell_length_a       10.1322
_cell_length_b       10.3031
_cell_length_c       10.5135
_cell_angle_alpha    90
_cell_angle_beta     90
_cell_angle_gamma    90

_symmetry_space_group_name_H-M    "P 1"
_symmetry_int_tables_number       1

loop_
  _symmetry_equiv_pos_as_xyz
  'x, y, z'

loop_
  _atom_site_label
  _atom_site_occupancy
  _atom_site_fract_x
  _atom_site_fract_y
  _atom_site_fract_z
  _atom_site_thermal_displace_type
  _atom_site_B_iso_or_equiv
  _atom_site_type_symbol
  La1      1.0000 0.13262  0.00889  0.16397  Biso   1.000  La
  Hf1      1.0000 0.13893  0.02056  0.67374  Biso   1.000  Hf
  Hf2      1.0000 0.13809  0.52088  0.16950  Biso   1.000  Hf
  Hf3      1.0000 0.13621  0.52109  0.66876  Biso   1.000  Hf
  Hf4      1.0000 0.13700  0.22715  0.42454  Biso   1.000  Hf
  Hf5      1.0000 0.13903  0.23232  0.91791  Biso   1.000  Hf
  Hf6      1.0000 0.13698  0.72779  0.42294  Biso   1.000  Hf
  Hf7      1.0000 0.13657  0.72852  0.91982  Biso   1.000  Hf
  Hf8      1.0000 0.35470  0.26406  0.17308  Biso   1.000  Hf
  Hf9      1.0000 0.36126  0.27071  0.67040  Biso   1.000  Hf
  Hf10     1.0000 0.36150  0.76961  0.17328  Biso   1.000  Hf
  Hf11     1.0000 0.35739  0.77160  0.67107  Biso   1.000  Hf
  Hf12     1.0000 0.35877  0.47776  0.41882  Biso   1.000  Hf
  Hf13     1.0000 0.35262  0.48005  0.91508  Biso   1.000  Hf
  Hf14     1.0000 0.35669  0.97966  0.42497  Biso   1.000  Hf
  Hf15     1.0000 0.36158  0.97990  0.91884  Biso   1.000  Hf
  Hf16     1.0000 0.64018  0.02083  0.08049  Biso   1.000  Hf
  Hf17     1.0000 0.63827  0.02105  0.58125  Biso   1.000  Hf
  La2      1.0000 0.63056  0.50893  0.08598  Biso   1.000  La
  Hf18     1.0000 0.63682  0.52057  0.57623  Biso   1.000  Hf
  Hf19     1.0000 0.63867  0.22850  0.33017  Biso   1.000  Hf
  Hf20     1.0000 0.63908  0.22779  0.82705  Biso   1.000  Hf
  Hf21     1.0000 0.63695  0.73230  0.33211  Biso   1.000  Hf
  Hf22     1.0000 0.63486  0.72716  0.82543  Biso   1.000  Hf
  Hf23     1.0000 0.86359  0.26961  0.07676  Biso   1.000  Hf
  Hf24     1.0000 0.85949  0.27159  0.57895  Biso   1.000  Hf
  Hf25     1.0000 0.85261  0.76404  0.07690  Biso   1.000  Hf
  Hf26     1.0000 0.85914  0.77068  0.57963  Biso   1.000  Hf
  Hf27     1.0000 0.86370  0.47984  0.33117  Biso   1.000  Hf
  Hf28     1.0000 0.85877  0.47961  0.82502  Biso   1.000  Hf
  Hf29     1.0000 0.85052  0.98005  0.33493  Biso   1.000  Hf
  Hf30     1.0000 0.85666  0.97782  0.83118  Biso   1.000  Hf
  Hf31     1.0000 0.03382  0.18217  0.07895  Biso   1.000  Hf
  Hf32     1.0000 0.03191  0.16736  0.58953  Biso   1.000  Hf
  Hf33     1.0000 0.03173  0.66913  0.08371  Biso   1.000  Hf
  Hf34     1.0000 0.02997  0.66522  0.58453  Biso   1.000  Hf
  Hf35     1.0000 0.02024  0.08864  0.34748  Biso   1.000  Hf
  Hf36     1.0000 0.03322  0.08337  0.83656  Biso   1.000  Hf
  Hf37     1.0000 0.03519  0.58389  0.33534  Biso   1.000  Hf
  Hf38     1.0000 0.03038  0.58450  0.83082  Biso   1.000  Hf
  Hf39     1.0000 0.43646  0.40983  0.07764  Biso   1.000  Hf
  Hf40     1.0000 0.46597  0.41394  0.58021  Biso   1.000  Hf
  Hf41     1.0000 0.46228  0.92292  0.08667  Biso   1.000  Hf
  Hf42     1.0000 0.46328  0.91677  0.58623  Biso   1.000  Hf
  Hf43     1.0000 0.47021  0.33968  0.32826  Biso   1.000  Hf
  Hf44     1.0000 0.46713  0.33534  0.83104  Biso   1.000  Hf
  Hf45     1.0000 0.46693  0.83900  0.33910  Biso   1.000  Hf
  Hf46     1.0000 0.46602  0.83729  0.82969  Biso   1.000  Hf
  Hf47     1.0000 0.27886  0.12638  0.30595  Biso   1.000  Hf
  Hf48     1.0000 0.27560  0.12429  0.79260  Biso   1.000  Hf
  Hf49     1.0000 0.27658  0.62015  0.29317  Biso   1.000  Hf
  Hf50     1.0000 0.26937  0.62619  0.79085  Biso   1.000  Hf
  Hf51     1.0000 0.28472  0.13422  0.03436  Biso   1.000  Hf
  Hf52     1.0000 0.27352  0.12559  0.54852  Biso   1.000  Hf
  Hf53     1.0000 0.27138  0.62172  0.04298  Biso   1.000  Hf
  Hf54     1.0000 0.27319  0.62551  0.54313  Biso   1.000  Hf
  Hf55     1.0000 0.22180  0.37181  0.29402  Biso   1.000  Hf
  Hf56     1.0000 0.22365  0.37478  0.79022  Biso   1.000  Hf
  Hf57     1.0000 0.23024  0.86301  0.30415  Biso   1.000  Hf
  Hf58     1.0000 0.22137  0.87499  0.79322  Biso   1.000  Hf
  Hf59     1.0000 0.20877  0.37824  0.04097  Biso   1.000  Hf
  Hf60     1.0000 0.22403  0.37598  0.54382  Biso   1.000  Hf
  Hf61     1.0000 0.23979  0.86149  0.03294  Biso   1.000  Hf
  Hf62     1.0000 0.22071  0.87600  0.54803  Biso   1.000  Hf
  Hf63     1.0000 0.53383  0.16919  0.16624  Biso   1.000  Hf
  Hf64     1.0000 0.53209  0.16526  0.66547  Biso   1.000  Hf
  Hf65     1.0000 0.53170  0.68219  0.17102  Biso   1.000  Hf
  Hf66     1.0000 0.52979  0.66734  0.66046  Biso   1.000  Hf
  Hf67     1.0000 0.53245  0.08444  0.41910  Biso   1.000  Hf
  Hf68     1.0000 0.53725  0.08387  0.91459  Biso   1.000  Hf
  Hf69     1.0000 0.53109  0.58334  0.41342  Biso   1.000  Hf
  Hf70     1.0000 0.51810  0.58863  0.90251  Biso   1.000  Hf
  Hf71     1.0000 0.96436  0.42288  0.16339  Biso   1.000  Hf
  Hf72     1.0000 0.96535  0.41673  0.66383  Biso   1.000  Hf
  Hf73     1.0000 0.93431  0.90978  0.17239  Biso   1.000  Hf
  Hf74     1.0000 0.96381  0.91392  0.66981  Biso   1.000  Hf
  Hf75     1.0000 0.96814  0.33730  0.42032  Biso   1.000  Hf
  Hf76     1.0000 0.96903  0.33908  0.91094  Biso   1.000  Hf
  Hf77     1.0000 0.96503  0.83532  0.41900  Biso   1.000  Hf
  Hf78     1.0000 0.96805  0.83970  0.92175  Biso   1.000  Hf
  Hf79     1.0000 0.77864  0.12016  0.95683  Biso   1.000  Hf
  Hf80     1.0000 0.77146  0.12614  0.45915  Biso   1.000  Hf
  Hf81     1.0000 0.77670  0.62637  0.94402  Biso   1.000  Hf
  Hf82     1.0000 0.77349  0.62425  0.45737  Biso   1.000  Hf
  Hf83     1.0000 0.77349  0.12173  0.20698  Biso   1.000  Hf
  Hf84     1.0000 0.77530  0.12550  0.70686  Biso   1.000  Hf
  Hf85     1.0000 0.78258  0.63423  0.21562  Biso   1.000  Hf
  Hf86     1.0000 0.77139  0.62558  0.70148  Biso   1.000  Hf
  Hf87     1.0000 0.73234  0.36301  0.94587  Biso   1.000  Hf
  Hf88     1.0000 0.72350  0.37498  0.45676  Biso   1.000  Hf
  Hf89     1.0000 0.71968  0.87184  0.95601  Biso   1.000  Hf
  Hf90     1.0000 0.72155  0.87477  0.45980  Biso   1.000  Hf
  Hf91     1.0000 0.74182  0.36149  0.21706  Biso   1.000  Hf
  Hf92     1.0000 0.72279  0.37598  0.70200  Biso   1.000  Hf
  Hf93     1.0000 0.70659  0.87827  0.20908  Biso   1.000  Hf
  Hf94     1.0000 0.72188  0.87596  0.70620  Biso   1.000  Hf
