data_image0
_cell_length_a       10.1216
_cell_length_b       10.2479
_cell_length_c       10.5664
_cell_angle_alpha    90
_cell_angle_beta     90
_cell_angle_gamma    90

_symmetry_space_group_name_H-M    "P 1"
_symmetry_int_tables_number       1

loop_
  _symmetry_equiv_pos_as_xyz
  'x, y, z'

loop_
  _atom_site_label
  _atom_site_occupancy
  _atom_site_fract_x
  _atom_site_fract_y
  _atom_site_fract_z
  _atom_site_thermal_displace_type
  _atom_site_B_iso_or_equiv
  _atom_site_type_symbol
  La1      1.0000 0.10009  0.99520  0.13605  Biso   1.000  La
  Hf1      1.0000 0.12864  0.01588  0.66788  Biso   1.000  Hf
  Hf2      1.0000 0.13250  0.52074  0.17062  Biso   1.000  Hf
  Hf3      1.0000 0.12669  0.52152  0.66924  Biso   1.000  Hf
  Hf4      1.0000 0.11455  0.23632  0.42869  Biso   1.000  Hf
  Hf5      1.0000 0.12296  0.23557  0.91018  Biso   1.000  Hf
  Hf6      1.0000 0.12807  0.73182  0.42085  Biso   1.000  Hf
  Hf7      1.0000 0.12684  0.72462  0.92221  Biso   1.000  Hf
  La2      1.0000 0.35442  0.25660  0.16390  Biso   1.000  La
  Hf8      1.0000 0.35388  0.27038  0.66777  Biso   1.000  Hf
  Hf9      1.0000 0.36151  0.76981  0.17210  Biso   1.000  Hf
  Hf10     1.0000 0.34837  0.76561  0.67552  Biso   1.000  Hf
  Hf11     1.0000 0.35313  0.47606  0.42172  Biso   1.000  Hf
  Hf12     1.0000 0.34823  0.47825  0.91981  Biso   1.000  Hf
  Hf13     1.0000 0.36151  0.96473  0.43447  Biso   1.000  Hf
  Hf14     1.0000 0.35110  0.97584  0.91566  Biso   1.000  Hf
  Hf15     1.0000 0.64452  0.01885  0.07973  Biso   1.000  Hf
  Hf16     1.0000 0.63633  0.02145  0.58139  Biso   1.000  Hf
  Hf17     1.0000 0.63233  0.51923  0.07554  Biso   1.000  Hf
  Hf18     1.0000 0.62748  0.52249  0.57577  Biso   1.000  Hf
  Hf19     1.0000 0.63658  0.23055  0.33266  Biso   1.000  Hf
  Hf20     1.0000 0.62777  0.22812  0.82983  Biso   1.000  Hf
  Hf21     1.0000 0.63297  0.72786  0.32733  Biso   1.000  Hf
  Hf22     1.0000 0.62597  0.72618  0.82548  Biso   1.000  Hf
  Hf23     1.0000 0.85785  0.27479  0.07871  Biso   1.000  Hf
  Hf24     1.0000 0.84773  0.27425  0.58471  Biso   1.000  Hf
  Hf25     1.0000 0.85127  0.76346  0.08027  Biso   1.000  Hf
  Hf26     1.0000 0.85330  0.77105  0.58106  Biso   1.000  Hf
  Hf27     1.0000 0.85332  0.48294  0.32839  Biso   1.000  Hf
  Hf28     1.0000 0.84819  0.48045  0.82679  Biso   1.000  Hf
  Hf29     1.0000 0.85237  0.97883  0.33695  Biso   1.000  Hf
  Hf30     1.0000 0.84880  0.97822  0.83290  Biso   1.000  Hf
  Hf31     1.0000 0.03155  0.18769  0.07368  Biso   1.000  Hf
  Hf32     1.0000 0.01937  0.16170  0.58606  Biso   1.000  Hf
  Hf33     1.0000 0.02462  0.65514  0.07272  Biso   1.000  Hf
  Hf34     1.0000 0.02019  0.65785  0.57414  Biso   1.000  Hf
  Hf35     1.0000 0.03529  0.09185  0.33074  Biso   1.000  Hf
  Hf36     1.0000 0.02326  0.08774  0.82759  Biso   1.000  Hf
  Hf37     1.0000 0.02136  0.59575  0.32698  Biso   1.000  Hf
  Hf38     1.0000 0.01481  0.59540  0.82272  Biso   1.000  Hf
  Hf39     1.0000 0.46428  0.41890  0.07519  Biso   1.000  Hf
  Hf40     1.0000 0.45834  0.41659  0.58327  Biso   1.000  Hf
  Hf41     1.0000 0.46452  0.91910  0.08215  Biso   1.000  Hf
  Hf42     1.0000 0.46367  0.90471  0.58395  Biso   1.000  Hf
  Hf43     1.0000 0.46815  0.33565  0.34362  Biso   1.000  Hf
  Hf44     1.0000 0.45497  0.33231  0.82957  Biso   1.000  Hf
  Hf45     1.0000 0.46711  0.83384  0.33183  Biso   1.000  Hf
  Hf46     1.0000 0.45913  0.83450  0.82773  Biso   1.000  Hf
  Hf47     1.0000 0.26748  0.11865  0.77166  Biso   1.000  Hf
  Hf48     1.0000 0.26821  0.62270  0.29336  Biso   1.000  Hf
  Hf49     1.0000 0.26215  0.62235  0.79462  Biso   1.000  Hf
  Hf50     1.0000 0.26438  0.11992  0.01074  Biso   1.000  Hf
  Hf51     1.0000 0.26778  0.12635  0.51567  Biso   1.000  Hf
  Hf52     1.0000 0.27065  0.62277  0.04511  Biso   1.000  Hf
  Hf53     1.0000 0.26397  0.62599  0.54298  Biso   1.000  Hf
  Hf54     1.0000 0.20894  0.37015  0.30395  Biso   1.000  Hf
  Hf55     1.0000 0.21584  0.37428  0.78982  Biso   1.000  Hf
  Hf56     1.0000 0.23024  0.87925  0.29991  Biso   1.000  Hf
  Hf57     1.0000 0.21131  0.87165  0.79402  Biso   1.000  Hf
  Hf58     1.0000 0.21044  0.38584  0.03382  Biso   1.000  Hf
  Hf59     1.0000 0.21564  0.37644  0.54872  Biso   1.000  Hf
  Hf60     1.0000 0.24312  0.85782  0.03254  Biso   1.000  Hf
  Hf61     1.0000 0.21882  0.87229  0.55167  Biso   1.000  Hf
  Hf62     1.0000 0.55267  0.15949  0.17337  Biso   1.000  Hf
  Hf63     1.0000 0.52616  0.16270  0.66556  Biso   1.000  Hf
  Hf64     1.0000 0.52892  0.66362  0.16653  Biso   1.000  Hf
  Hf65     1.0000 0.51971  0.66066  0.66850  Biso   1.000  Hf
  Hf66     1.0000 0.52679  0.08342  0.41917  Biso   1.000  Hf
  Hf67     1.0000 0.52648  0.08551  0.91818  Biso   1.000  Hf
  Hf68     1.0000 0.52351  0.58721  0.41752  Biso   1.000  Hf
  Hf69     1.0000 0.51928  0.58723  0.91617  Biso   1.000  Hf
  Hf70     1.0000 0.96006  0.41659  0.17296  Biso   1.000  Hf
  Hf71     1.0000 0.95811  0.41254  0.67043  Biso   1.000  Hf
  Hf72     1.0000 0.94838  0.86324  0.21161  Biso   1.000  Hf
  Hf73     1.0000 0.96091  0.89668  0.69068  Biso   1.000  Hf
  Hf74     1.0000 0.95399  0.34519  0.42832  Biso   1.000  Hf
  Hf75     1.0000 0.95059  0.34150  0.91354  Biso   1.000  Hf
  Hf76     1.0000 0.97023  0.85705  0.44541  Biso   1.000  Hf
  Hf77     1.0000 0.96878  0.86102  0.95226  Biso   1.000  Hf
  Hf78     1.0000 0.76851  0.12247  0.95654  Biso   1.000  Hf
  Hf79     1.0000 0.76851  0.12623  0.46078  Biso   1.000  Hf
  Hf80     1.0000 0.76216  0.62046  0.95266  Biso   1.000  Hf
  Hf81     1.0000 0.76791  0.62690  0.45371  Biso   1.000  Hf
  Hf82     1.0000 0.79230  0.12362  0.20747  Biso   1.000  Hf
  Hf83     1.0000 0.76851  0.12540  0.70953  Biso   1.000  Hf
  Hf84     1.0000 0.76702  0.62395  0.20395  Biso   1.000  Hf
  Hf85     1.0000 0.76266  0.62634  0.70250  Biso   1.000  Hf
  Hf86     1.0000 0.70911  0.37227  0.95480  Biso   1.000  Hf
  Hf87     1.0000 0.71676  0.37659  0.45848  Biso   1.000  Hf
  Hf88     1.0000 0.71606  0.86810  0.95386  Biso   1.000  Hf
  Hf89     1.0000 0.71908  0.87410  0.45684  Biso   1.000  Hf
  Hf90     1.0000 0.71853  0.37635  0.20782  Biso   1.000  Hf
  Hf91     1.0000 0.71281  0.37671  0.70596  Biso   1.000  Hf
  Hf92     1.0000 0.71068  0.87859  0.20609  Biso   1.000  Hf
  Hf93     1.0000 0.71429  0.87759  0.70556  Biso   1.000  Hf
