data_image0
_cell_length_a       10.1827
_cell_length_b       10.3335
_cell_length_c       10.4882
_cell_angle_alpha    90
_cell_angle_beta     80
_cell_angle_gamma    90

_symmetry_space_group_name_H-M    "P 1"
_symmetry_int_tables_number       1

loop_
  _symmetry_equiv_pos_as_xyz
  'x, y, z'

loop_
  _atom_site_label
  _atom_site_occupancy
  _atom_site_fract_x
  _atom_site_fract_y
  _atom_site_fract_z
  _atom_site_thermal_displace_type
  _atom_site_B_iso_or_equiv
  _atom_site_type_symbol
  La1      1.0000 0.12427  0.00758  0.13524  Biso   1.000  La
  Hf1      1.0000 0.12729  0.02100  0.64333  Biso   1.000  Hf
  Hf2      1.0000 0.13281  0.51841  0.14573  Biso   1.000  Hf
  Hf3      1.0000 0.12317  0.52196  0.65010  Biso   1.000  Hf
  Hf4      1.0000 0.64540  0.01776  0.14599  Biso   1.000  Hf
  Hf5      1.0000 0.62775  0.02281  0.64894  Biso   1.000  Hf
  Hf6      1.0000 0.63058  0.51981  0.14744  Biso   1.000  Hf
  Hf7      1.0000 0.62206  0.52294  0.64937  Biso   1.000  Hf
  Hf8      1.0000 0.11086  0.24003  0.41401  Biso   1.000  Hf
  Hf9      1.0000 0.11847  0.23391  0.89183  Biso   1.000  Hf
  Hf10     1.0000 0.12612  0.72655  0.39845  Biso   1.000  Hf
  Hf11     1.0000 0.12228  0.72712  0.89830  Biso   1.000  Hf
  Hf12     1.0000 0.62921  0.23068  0.39612  Biso   1.000  Hf
  Hf13     1.0000 0.62727  0.22902  0.89736  Biso   1.000  Hf
  Hf14     1.0000 0.62898  0.72630  0.39992  Biso   1.000  Hf
  Hf15     1.0000 0.62057  0.73081  0.89690  Biso   1.000  Hf
  La2      1.0000 0.35885  0.25279  0.11041  Biso   1.000  La
  Hf16     1.0000 0.35163  0.27333  0.60216  Biso   1.000  Hf
  Hf17     1.0000 0.36039  0.76730  0.10312  Biso   1.000  Hf
  Hf18     1.0000 0.34431  0.76794  0.60959  Biso   1.000  Hf
  Hf19     1.0000 0.85750  0.27325  0.10244  Biso   1.000  Hf
  Hf20     1.0000 0.84131  0.27596  0.61193  Biso   1.000  Hf
  Hf21     1.0000 0.85188  0.76429  0.10348  Biso   1.000  Hf
  Hf22     1.0000 0.84747  0.77211  0.60664  Biso   1.000  Hf
  Hf23     1.0000 0.35104  0.48102  0.35548  Biso   1.000  Hf
  Hf24     1.0000 0.34500  0.47582  0.85913  Biso   1.000  Hf
  Hf25     1.0000 0.35892  0.96622  0.36115  Biso   1.000  Hf
  Hf26     1.0000 0.34398  0.97569  0.84978  Biso   1.000  Hf
  Hf27     1.0000 0.84812  0.48277  0.35488  Biso   1.000  Hf
  Hf28     1.0000 0.84277  0.48203  0.85621  Biso   1.000  Hf
  Hf29     1.0000 0.84409  0.98101  0.36200  Biso   1.000  Hf
  Hf30     1.0000 0.84488  0.97817  0.85743  Biso   1.000  Hf
  Hf31     1.0000 0.03703  0.19288  0.07669  Biso   1.000  Hf
  Hf32     1.0000 0.02163  0.17765  0.59401  Biso   1.000  Hf
  Hf33     1.0000 0.03356  0.67293  0.08347  Biso   1.000  Hf
  Hf34     1.0000 0.02276  0.67178  0.58345  Biso   1.000  Hf
  Hf35     1.0000 0.56258  0.17143  0.07777  Biso   1.000  Hf
  Hf36     1.0000 0.52362  0.16741  0.57804  Biso   1.000  Hf
  Hf37     1.0000 0.53690  0.67627  0.08371  Biso   1.000  Hf
  Hf38     1.0000 0.52177  0.66978  0.58459  Biso   1.000  Hf
  Hf39     1.0000 0.02867  0.08738  0.34094  Biso   1.000  Hf
  Hf40     1.0000 0.02660  0.07631  0.83209  Biso   1.000  Hf
  Hf41     1.0000 0.02467  0.58051  0.33255  Biso   1.000  Hf
  Hf42     1.0000 0.01858  0.57994  0.83394  Biso   1.000  Hf
  Hf43     1.0000 0.52715  0.08414  0.32713  Biso   1.000  Hf
  Hf44     1.0000 0.52293  0.08240  0.83013  Biso   1.000  Hf
  Hf45     1.0000 0.52692  0.58068  0.33551  Biso   1.000  Hf
  Hf46     1.0000 0.51878  0.58193  0.83374  Biso   1.000  Hf
  Hf47     1.0000 0.45417  0.43420  0.17195  Biso   1.000  Hf
  Hf48     1.0000 0.44963  0.41905  0.67129  Biso   1.000  Hf
  Hf49     1.0000 0.44760  0.93507  0.16621  Biso   1.000  Hf
  Hf50     1.0000 0.44935  0.91761  0.66858  Biso   1.000  Hf
  Hf51     1.0000 0.95298  0.42580  0.17064  Biso   1.000  Hf
  Hf52     1.0000 0.94760  0.42442  0.67040  Biso   1.000  Hf
  Hf53     1.0000 0.92185  0.92339  0.17491  Biso   1.000  Hf
  Hf54     1.0000 0.94749  0.92059  0.67114  Biso   1.000  Hf
  Hf55     1.0000 0.45254  0.32986  0.41703  Biso   1.000  Hf
  Hf56     1.0000 0.45519  0.33260  0.91649  Biso   1.000  Hf
  Hf57     1.0000 0.45345  0.82598  0.42573  Biso   1.000  Hf
  Hf58     1.0000 0.45241  0.83475  0.92204  Biso   1.000  Hf
  Hf59     1.0000 0.94198  0.33593  0.42881  Biso   1.000  Hf
  Hf60     1.0000 0.94030  0.33047  0.91459  Biso   1.000  Hf
  Hf61     1.0000 0.95330  0.83321  0.41991  Biso   1.000  Hf
  Hf62     1.0000 0.94817  0.83244  0.92638  Biso   1.000  Hf
  Hf63     1.0000 0.26445  0.12784  0.72467  Biso   1.000  Hf
  Hf64     1.0000 0.26599  0.62583  0.24191  Biso   1.000  Hf
  Hf65     1.0000 0.26027  0.62828  0.74486  Biso   1.000  Hf
  Hf66     1.0000 0.77099  0.13190  0.24487  Biso   1.000  Hf
  Hf67     1.0000 0.76382  0.13022  0.74377  Biso   1.000  Hf
  Hf68     1.0000 0.76622  0.62996  0.24294  Biso   1.000  Hf
  Hf69     1.0000 0.75997  0.63135  0.74177  Biso   1.000  Hf
  Hf70     1.0000 0.26289  0.12156  0.46592  Biso   1.000  Hf
  Hf71     1.0000 0.25605  0.11685  0.96764  Biso   1.000  Hf
  Hf72     1.0000 0.26300  0.62175  0.49347  Biso   1.000  Hf
  Hf73     1.0000 0.25883  0.61941  0.99523  Biso   1.000  Hf
  Hf74     1.0000 0.76451  0.12410  0.49494  Biso   1.000  Hf
  Hf75     1.0000 0.77233  0.11829  0.99132  Biso   1.000  Hf
  Hf76     1.0000 0.76434  0.62236  0.49310  Biso   1.000  Hf
  Hf77     1.0000 0.75549  0.62186  0.99251  Biso   1.000  Hf
  Hf78     1.0000 0.21582  0.38434  0.00277  Biso   1.000  Hf
  Hf79     1.0000 0.21250  0.38205  0.51497  Biso   1.000  Hf
  Hf80     1.0000 0.21842  0.86420  0.99885  Biso   1.000  Hf
  Hf81     1.0000 0.21282  0.87815  0.51394  Biso   1.000  Hf
  Hf82     1.0000 0.72223  0.38194  0.00881  Biso   1.000  Hf
  Hf83     1.0000 0.70580  0.38153  0.51289  Biso   1.000  Hf
  Hf84     1.0000 0.72129  0.87681  0.00955  Biso   1.000  Hf
  Hf85     1.0000 0.71147  0.88063  0.51396  Biso   1.000  Hf
  Hf86     1.0000 0.20545  0.36644  0.27172  Biso   1.000  Hf
  Hf87     1.0000 0.21048  0.37174  0.75885  Biso   1.000  Hf
  Hf88     1.0000 0.22697  0.86270  0.26667  Biso   1.000  Hf
  Hf89     1.0000 0.20490  0.86961  0.75827  Biso   1.000  Hf
  Hf90     1.0000 0.71431  0.37278  0.26082  Biso   1.000  Hf
  Hf91     1.0000 0.70848  0.37339  0.76135  Biso   1.000  Hf
  Hf92     1.0000 0.70001  0.87017  0.26927  Biso   1.000  Hf
  Hf93     1.0000 0.70862  0.87206  0.76180  Biso   1.000  Hf
