data_image0
_cell_length_a       10.2375
_cell_length_b       10.3342
_cell_length_c       10.4968
_cell_angle_alpha    90
_cell_angle_beta     80
_cell_angle_gamma    90

_symmetry_space_group_name_H-M    "P 1"
_symmetry_int_tables_number       1

loop_
  _symmetry_equiv_pos_as_xyz
  'x, y, z'

loop_
  _atom_site_label
  _atom_site_occupancy
  _atom_site_fract_x
  _atom_site_fract_y
  _atom_site_fract_z
  _atom_site_thermal_displace_type
  _atom_site_B_iso_or_equiv
  _atom_site_type_symbol
  La1      1.0000 0.13269  0.01150  0.14077  Biso   1.000  La
  Hf1      1.0000 0.13275  0.01821  0.64772  Biso   1.000  Hf
  Hf2      1.0000 0.13583  0.52113  0.14611  Biso   1.000  Hf
  Hf3      1.0000 0.13101  0.51967  0.64729  Biso   1.000  Hf
  Hf4      1.0000 0.63834  0.02005  0.14654  Biso   1.000  Hf
  Hf5      1.0000 0.63402  0.02076  0.64685  Biso   1.000  Hf
  Hf6      1.0000 0.63454  0.51855  0.14694  Biso   1.000  Hf
  La2      1.0000 0.62536  0.51104  0.64149  Biso   1.000  La
  Hf7      1.0000 0.13746  0.22805  0.39632  Biso   1.000  Hf
  Hf8      1.0000 0.12580  0.23013  0.89663  Biso   1.000  Hf
  Hf9      1.0000 0.13329  0.72656  0.39780  Biso   1.000  Hf
  Hf10     1.0000 0.12722  0.72813  0.89621  Biso   1.000  Hf
  Hf11     1.0000 0.63454  0.22850  0.39547  Biso   1.000  Hf
  Hf12     1.0000 0.63148  0.22614  0.89852  Biso   1.000  Hf
  Hf13     1.0000 0.62757  0.73050  0.39588  Biso   1.000  Hf
  Hf14     1.0000 0.63011  0.72763  0.89706  Biso   1.000  Hf
  Hf15     1.0000 0.35946  0.26945  0.10398  Biso   1.000  Hf
  Hf16     1.0000 0.34977  0.26532  0.60442  Biso   1.000  Hf
  Hf17     1.0000 0.36206  0.76721  0.10380  Biso   1.000  Hf
  Hf18     1.0000 0.34851  0.77316  0.60370  Biso   1.000  Hf
  Hf19     1.0000 0.85583  0.27353  0.10291  Biso   1.000  Hf
  Hf20     1.0000 0.86024  0.26680  0.60457  Biso   1.000  Hf
  Hf21     1.0000 0.85157  0.76566  0.10364  Biso   1.000  Hf
  Hf22     1.0000 0.85212  0.76903  0.60475  Biso   1.000  Hf
  Hf23     1.0000 0.35503  0.47698  0.35462  Biso   1.000  Hf
  Hf24     1.0000 0.34402  0.47724  0.86087  Biso   1.000  Hf
  Hf25     1.0000 0.35316  0.97946  0.35365  Biso   1.000  Hf
  Hf26     1.0000 0.35075  0.97872  0.85283  Biso   1.000  Hf
  Hf27     1.0000 0.85814  0.47911  0.35204  Biso   1.000  Hf
  Hf28     1.0000 0.85137  0.47907  0.85440  Biso   1.000  Hf
  Hf29     1.0000 0.84579  0.97756  0.36010  Biso   1.000  Hf
  Hf30     1.0000 0.84768  0.97655  0.85540  Biso   1.000  Hf
  Hf31     1.0000 0.03073  0.18709  0.07696  Biso   1.000  Hf
  Hf32     1.0000 0.03356  0.17006  0.58476  Biso   1.000  Hf
  Hf33     1.0000 0.03121  0.67145  0.08124  Biso   1.000  Hf
  Hf34     1.0000 0.02727  0.66787  0.58096  Biso   1.000  Hf
  Hf35     1.0000 0.53465  0.16829  0.08018  Biso   1.000  Hf
  Hf36     1.0000 0.52938  0.17113  0.58204  Biso   1.000  Hf
  Hf37     1.0000 0.53535  0.67038  0.08395  Biso   1.000  Hf
  Hf38     1.0000 0.52338  0.68662  0.57767  Biso   1.000  Hf
  Hf39     1.0000 0.01941  0.08729  0.34582  Biso   1.000  Hf
  Hf40     1.0000 0.02719  0.07855  0.83367  Biso   1.000  Hf
  Hf41     1.0000 0.03117  0.58294  0.32831  Biso   1.000  Hf
  Hf42     1.0000 0.02542  0.57960  0.83127  Biso   1.000  Hf
  Hf43     1.0000 0.53272  0.07997  0.33054  Biso   1.000  Hf
  Hf44     1.0000 0.52933  0.08251  0.82910  Biso   1.000  Hf
  Hf45     1.0000 0.52896  0.57897  0.33286  Biso   1.000  Hf
  Hf46     1.0000 0.51208  0.58689  0.84650  Biso   1.000  Hf
  Hf47     1.0000 0.46128  0.41652  0.17199  Biso   1.000  Hf
  Hf48     1.0000 0.42759  0.41633  0.67912  Biso   1.000  Hf
  Hf49     1.0000 0.45793  0.92182  0.16668  Biso   1.000  Hf
  Hf50     1.0000 0.45150  0.92235  0.66983  Biso   1.000  Hf
  Hf51     1.0000 0.95883  0.42271  0.16907  Biso   1.000  Hf
  Hf52     1.0000 0.95610  0.42141  0.66744  Biso   1.000  Hf
  Hf53     1.0000 0.92941  0.91662  0.17838  Biso   1.000  Hf
  Hf54     1.0000 0.95392  0.91617  0.67273  Biso   1.000  Hf
  Hf55     1.0000 0.46131  0.33254  0.42334  Biso   1.000  Hf
  Hf56     1.0000 0.45885  0.33443  0.92171  Biso   1.000  Hf
  Hf57     1.0000 0.45277  0.83248  0.41764  Biso   1.000  Hf
  Hf58     1.0000 0.46294  0.83746  0.92205  Biso   1.000  Hf
  Hf59     1.0000 0.97032  0.33790  0.42128  Biso   1.000  Hf
  Hf60     1.0000 0.95098  0.33207  0.91837  Biso   1.000  Hf
  Hf61     1.0000 0.96064  0.83478  0.42098  Biso   1.000  Hf
  Hf62     1.0000 0.95392  0.83204  0.92408  Biso   1.000  Hf
  Hf63     1.0000 0.28029  0.13536  0.24782  Biso   1.000  Hf
  Hf64     1.0000 0.26651  0.12743  0.74014  Biso   1.000  Hf
  Hf65     1.0000 0.27319  0.62332  0.23991  Biso   1.000  Hf
  Hf66     1.0000 0.26395  0.63038  0.74279  Biso   1.000  Hf
  Hf67     1.0000 0.77133  0.13075  0.24205  Biso   1.000  Hf
  Hf68     1.0000 0.77142  0.12291  0.74070  Biso   1.000  Hf
  Hf69     1.0000 0.76828  0.62777  0.23937  Biso   1.000  Hf
  Hf70     1.0000 0.77293  0.63491  0.74855  Biso   1.000  Hf
  Hf71     1.0000 0.26969  0.11760  0.49222  Biso   1.000  Hf
  Hf72     1.0000 0.27515  0.12783  0.98051  Biso   1.000  Hf
  Hf73     1.0000 0.26772  0.61964  0.49150  Biso   1.000  Hf
  Hf74     1.0000 0.25953  0.61831  0.99486  Biso   1.000  Hf
  Hf75     1.0000 0.76686  0.11869  0.49408  Biso   1.000  Hf
  Hf76     1.0000 0.76595  0.11924  0.99221  Biso   1.000  Hf
  Hf77     1.0000 0.77690  0.62820  0.47973  Biso   1.000  Hf
  Hf78     1.0000 0.76231  0.61719  0.99296  Biso   1.000  Hf
  Hf79     1.0000 0.22307  0.37857  0.01055  Biso   1.000  Hf
  Hf80     1.0000 0.21913  0.37742  0.50956  Biso   1.000  Hf
  Hf81     1.0000 0.22835  0.86419  0.99648  Biso   1.000  Hf
  Hf82     1.0000 0.21293  0.87917  0.51044  Biso   1.000  Hf
  Hf83     1.0000 0.72028  0.37956  0.00958  Biso   1.000  Hf
  Hf84     1.0000 0.73572  0.36458  0.49565  Biso   1.000  Hf
  Hf85     1.0000 0.72088  0.87778  0.00883  Biso   1.000  Hf
  Hf86     1.0000 0.71574  0.87819  0.51130  Biso   1.000  Hf
  Hf87     1.0000 0.21964  0.37151  0.25858  Biso   1.000  Hf
  Hf88     1.0000 0.20126  0.37050  0.76405  Biso   1.000  Hf
  Hf89     1.0000 0.23006  0.85814  0.26352  Biso   1.000  Hf
  Hf90     1.0000 0.21145  0.87193  0.75890  Biso   1.000  Hf
  Hf91     1.0000 0.71878  0.37228  0.25815  Biso   1.000  Hf
  Hf92     1.0000 0.72828  0.35776  0.76425  Biso   1.000  Hf
  Hf93     1.0000 0.70302  0.87083  0.26326  Biso   1.000  Hf
  Hf94     1.0000 0.71227  0.87111  0.75931  Biso   1.000  Hf
