data_image0
_cell_length_a       10.0566
_cell_length_b       10.4287
_cell_length_c       10.0848
_cell_angle_alpha    90
_cell_angle_beta     90
_cell_angle_gamma    90

_symmetry_space_group_name_H-M    "P 1"
_symmetry_int_tables_number       1

loop_
  _symmetry_equiv_pos_as_xyz
  'x, y, z'

loop_
  _atom_site_label
  _atom_site_occupancy
  _atom_site_fract_x
  _atom_site_fract_y
  _atom_site_fract_z
  _atom_site_thermal_displace_type
  _atom_site_B_iso_or_equiv
  _atom_site_type_symbol
  La1      1.0000 0.12103  0.99417  0.11861  Biso   1.000  La
  Hf1      1.0000 0.13010  0.00679  0.62295  Biso   1.000  Hf
  Hf2      1.0000 0.11217  0.51613  0.10750  Biso   1.000  Hf
  Hf3      1.0000 0.12920  0.51039  0.62626  Biso   1.000  Hf
  Hf4      1.0000 0.63885  0.01647  0.12269  Biso   1.000  Hf
  Hf5      1.0000 0.63058  0.00910  0.62809  Biso   1.000  Hf
  Hf6      1.0000 0.63346  0.51641  0.12615  Biso   1.000  Hf
  Hf7      1.0000 0.62290  0.50698  0.62274  Biso   1.000  Hf
  Hf8      1.0000 0.11577  0.23269  0.38801  Biso   1.000  Hf
  Hf9      1.0000 0.12950  0.22485  0.87604  Biso   1.000  Hf
  Hf10     1.0000 0.13441  0.71752  0.37131  Biso   1.000  Hf
  Hf11     1.0000 0.12905  0.72826  0.87023  Biso   1.000  Hf
  Hf12     1.0000 0.63672  0.22889  0.38256  Biso   1.000  Hf
  Hf13     1.0000 0.63291  0.22288  0.87430  Biso   1.000  Hf
  Hf14     1.0000 0.62783  0.72627  0.37987  Biso   1.000  Hf
  Hf15     1.0000 0.63312  0.72072  0.86679  Biso   1.000  Hf
  Hf16     1.0000 0.38570  0.26746  0.10923  Biso   1.000  Hf
  Hf17     1.0000 0.36112  0.25895  0.62858  Biso   1.000  Hf
  Hf18     1.0000 0.38415  0.76106  0.09972  Biso   1.000  Hf
  Hf19     1.0000 0.35984  0.75972  0.62156  Biso   1.000  Hf
  Hf20     1.0000 0.86715  0.26686  0.13164  Biso   1.000  Hf
  Hf21     1.0000 0.86329  0.26072  0.63040  Biso   1.000  Hf
  Hf22     1.0000 0.85577  0.76540  0.12969  Biso   1.000  Hf
  Hf23     1.0000 0.86617  0.75725  0.61823  Biso   1.000  Hf
  Hf24     1.0000 0.36384  0.46481  0.37436  Biso   1.000  Hf
  Hf25     1.0000 0.35720  0.47710  0.87585  Biso   1.000  Hf
  La2      1.0000 0.37138  0.98612  0.36170  Biso   1.000  La
  Hf26     1.0000 0.36666  0.97596  0.87073  Biso   1.000  Hf
  Hf27     1.0000 0.85903  0.48227  0.38056  Biso   1.000  Hf
  Hf28     1.0000 0.85569  0.47269  0.87388  Biso   1.000  Hf
  Hf29     1.0000 0.85837  0.97680  0.38087  Biso   1.000  Hf
  Hf30     1.0000 0.86067  0.97066  0.87181  Biso   1.000  Hf
  Hf31     1.0000 0.02968  0.18695  0.20849  Biso   1.000  Hf
  Hf32     1.0000 0.03338  0.17882  0.68944  Biso   1.000  Hf
  Hf33     1.0000 0.02665  0.68348  0.18990  Biso   1.000  Hf
  Hf34     1.0000 0.03212  0.67863  0.69347  Biso   1.000  Hf
  Hf35     1.0000 0.52453  0.16937  0.21024  Biso   1.000  Hf
  Hf36     1.0000 0.52987  0.17561  0.69927  Biso   1.000  Hf
  Hf37     1.0000 0.52939  0.67684  0.20302  Biso   1.000  Hf
  Hf38     1.0000 0.53033  0.67326  0.69198  Biso   1.000  Hf
  Hf39     1.0000 0.03321  0.05634  0.43836  Biso   1.000  Hf
  Hf40     1.0000 0.02195  0.06713  0.92443  Biso   1.000  Hf
  Hf41     1.0000 0.02506  0.56287  0.45483  Biso   1.000  Hf
  Hf42     1.0000 0.02022  0.56713  0.93495  Biso   1.000  Hf
  Hf43     1.0000 0.55180  0.06315  0.45347  Biso   1.000  Hf
  Hf44     1.0000 0.53029  0.06343  0.94628  Biso   1.000  Hf
  Hf45     1.0000 0.53026  0.55478  0.44271  Biso   1.000  Hf
  Hf46     1.0000 0.51978  0.56487  0.95550  Biso   1.000  Hf
  Hf47     1.0000 0.46735  0.42998  0.19454  Biso   1.000  Hf
  Hf48     1.0000 0.45676  0.42771  0.69733  Biso   1.000  Hf
  Hf49     1.0000 0.46272  0.93343  0.15405  Biso   1.000  Hf
  Hf50     1.0000 0.46154  0.92836  0.69055  Biso   1.000  Hf
  Hf51     1.0000 0.96557  0.43124  0.20831  Biso   1.000  Hf
  Hf52     1.0000 0.96241  0.42573  0.70201  Biso   1.000  Hf
  Hf53     1.0000 0.93210  0.93031  0.20121  Biso   1.000  Hf
  Hf54     1.0000 0.96055  0.92547  0.69234  Biso   1.000  Hf
  Hf55     1.0000 0.46615  0.30652  0.45664  Biso   1.000  Hf
  Hf56     1.0000 0.46641  0.31531  0.93708  Biso   1.000  Hf
  Hf57     1.0000 0.46789  0.80747  0.45448  Biso   1.000  Hf
  Hf58     1.0000 0.46569  0.80584  0.92282  Biso   1.000  Hf
  Hf59     1.0000 0.95570  0.31877  0.45441  Biso   1.000  Hf
  Hf60     1.0000 0.96775  0.31777  0.95984  Biso   1.000  Hf
  Hf61     1.0000 0.95929  0.80716  0.43883  Biso   1.000  Hf
  Hf62     1.0000 0.96997  0.81825  0.95968  Biso   1.000  Hf
  Hf63     1.0000 0.26531  0.10987  0.75052  Biso   1.000  Hf
  Hf64     1.0000 0.23523  0.56248  0.25640  Biso   1.000  Hf
  Hf65     1.0000 0.26483  0.61089  0.74908  Biso   1.000  Hf
  Hf66     1.0000 0.76537  0.11796  0.25403  Biso   1.000  Hf
  Hf67     1.0000 0.76549  0.10926  0.75269  Biso   1.000  Hf
  Hf68     1.0000 0.76687  0.61468  0.24920  Biso   1.000  Hf
  Hf69     1.0000 0.76411  0.60472  0.74593  Biso   1.000  Hf
  Hf70     1.0000 0.25465  0.13415  0.50367  Biso   1.000  Hf
  Hf71     1.0000 0.27495  0.13733  0.00148  Biso   1.000  Hf
  Hf72     1.0000 0.27044  0.62167  0.49723  Biso   1.000  Hf
  Hf73     1.0000 0.25404  0.61873  0.99811  Biso   1.000  Hf
  Hf74     1.0000 0.77566  0.12841  0.50496  Biso   1.000  Hf
  Hf75     1.0000 0.77425  0.13458  0.00268  Biso   1.000  Hf
  Hf76     1.0000 0.76181  0.62530  0.49980  Biso   1.000  Hf
  Hf77     1.0000 0.76002  0.61824  0.99717  Biso   1.000  Hf
  Hf78     1.0000 0.22293  0.37878  0.50034  Biso   1.000  Hf
  Hf79     1.0000 0.23693  0.38726  0.00602  Biso   1.000  Hf
  Hf80     1.0000 0.21580  0.86625  0.49702  Biso   1.000  Hf
  Hf81     1.0000 0.23930  0.86234  0.98002  Biso   1.000  Hf
  Hf82     1.0000 0.72665  0.37679  0.50233  Biso   1.000  Hf
  Hf83     1.0000 0.73288  0.38473  0.00106  Biso   1.000  Hf
  Hf84     1.0000 0.72852  0.87498  0.50292  Biso   1.000  Hf
  Hf85     1.0000 0.72402  0.86764  0.99654  Biso   1.000  Hf
  Hf86     1.0000 0.26597  0.28799  0.26557  Biso   1.000  Hf
  Hf87     1.0000 0.22460  0.36047  0.75249  Biso   1.000  Hf
  Hf88     1.0000 0.24857  0.82143  0.23888  Biso   1.000  Hf
  Hf89     1.0000 0.22610  0.86241  0.74239  Biso   1.000  Hf
  Hf90     1.0000 0.72768  0.36498  0.25096  Biso   1.000  Hf
  Hf91     1.0000 0.72493  0.35828  0.75077  Biso   1.000  Hf
  Hf92     1.0000 0.70903  0.86415  0.25226  Biso   1.000  Hf
  Hf93     1.0000 0.73089  0.85513  0.74807  Biso   1.000  Hf
