data_image0
_cell_length_a       10.0549
_cell_length_b       10.4038
_cell_length_c       10.1052
_cell_angle_alpha    90
_cell_angle_beta     90
_cell_angle_gamma    90

_symmetry_space_group_name_H-M    "P 1"
_symmetry_int_tables_number       1

loop_
  _symmetry_equiv_pos_as_xyz
  'x, y, z'

loop_
  _atom_site_label
  _atom_site_occupancy
  _atom_site_fract_x
  _atom_site_fract_y
  _atom_site_fract_z
  _atom_site_thermal_displace_type
  _atom_site_B_iso_or_equiv
  _atom_site_type_symbol
  La1      1.0000 0.12254  0.00791  0.11953  Biso   1.000  La
  Hf1      1.0000 0.13416  0.01726  0.62482  Biso   1.000  Hf
  Hf2      1.0000 0.12897  0.51398  0.12099  Biso   1.000  Hf
  Hf3      1.0000 0.13459  0.51637  0.62432  Biso   1.000  Hf
  Hf4      1.0000 0.63307  0.01567  0.12609  Biso   1.000  Hf
  Hf5      1.0000 0.63354  0.01697  0.62693  Biso   1.000  Hf
  Hf6      1.0000 0.63529  0.51639  0.12225  Biso   1.000  Hf
  Hf7      1.0000 0.63826  0.51608  0.63256  Biso   1.000  Hf
  Hf8      1.0000 0.13599  0.23545  0.37761  Biso   1.000  Hf
  Hf9      1.0000 0.13395  0.23773  0.86847  Biso   1.000  Hf
  Hf10     1.0000 0.12981  0.73628  0.37565  Biso   1.000  Hf
  Hf11     1.0000 0.13665  0.73276  0.87477  Biso   1.000  Hf
  Hf12     1.0000 0.63610  0.23121  0.37543  Biso   1.000  Hf
  Hf13     1.0000 0.63456  0.23205  0.87446  Biso   1.000  Hf
  Hf14     1.0000 0.63684  0.73502  0.38181  Biso   1.000  Hf
  Hf15     1.0000 0.63491  0.73377  0.87487  Biso   1.000  Hf
  Hf16     1.0000 0.36326  0.26219  0.12040  Biso   1.000  Hf
  Hf17     1.0000 0.36525  0.26497  0.62583  Biso   1.000  Hf
  Hf18     1.0000 0.36719  0.76304  0.12476  Biso   1.000  Hf
  Hf19     1.0000 0.36525  0.76773  0.62608  Biso   1.000  Hf
  Hf20     1.0000 0.86055  0.26863  0.12699  Biso   1.000  Hf
  Hf21     1.0000 0.86746  0.26828  0.62336  Biso   1.000  Hf
  Hf22     1.0000 0.85852  0.76574  0.12840  Biso   1.000  Hf
  Hf23     1.0000 0.86849  0.76629  0.62887  Biso   1.000  Hf
  La2      1.0000 0.37549  0.49263  0.36866  Biso   1.000  La
  Hf24     1.0000 0.36723  0.48284  0.87523  Biso   1.000  Hf
  Hf25     1.0000 0.36511  0.98439  0.37403  Biso   1.000  Hf
  Hf26     1.0000 0.36900  0.98432  0.87255  Biso   1.000  Hf
  Hf27     1.0000 0.86482  0.48507  0.37680  Biso   1.000  Hf
  Hf28     1.0000 0.86687  0.48237  0.87654  Biso   1.000  Hf
  Hf29     1.0000 0.86231  0.98417  0.38261  Biso   1.000  Hf
  Hf30     1.0000 0.86341  0.98356  0.87255  Biso   1.000  Hf
  Hf31     1.0000 0.02397  0.19563  0.20558  Biso   1.000  Hf
  Hf32     1.0000 0.04012  0.18989  0.68346  Biso   1.000  Hf
  Hf33     1.0000 0.02653  0.68304  0.19698  Biso   1.000  Hf
  Hf34     1.0000 0.03436  0.68309  0.69924  Biso   1.000  Hf
  Hf35     1.0000 0.53569  0.18144  0.19435  Biso   1.000  Hf
  Hf36     1.0000 0.53517  0.18073  0.69711  Biso   1.000  Hf
  Hf37     1.0000 0.52496  0.67159  0.20934  Biso   1.000  Hf
  Hf38     1.0000 0.53496  0.68412  0.69880  Biso   1.000  Hf
  Hf39     1.0000 0.03377  0.06708  0.44365  Biso   1.000  Hf
  Hf40     1.0000 0.02961  0.07658  0.91647  Biso   1.000  Hf
  Hf41     1.0000 0.03502  0.56506  0.44469  Biso   1.000  Hf
  Hf42     1.0000 0.03291  0.57040  0.94444  Biso   1.000  Hf
  Hf43     1.0000 0.53785  0.06144  0.44530  Biso   1.000  Hf
  Hf44     1.0000 0.53749  0.06532  0.94482  Biso   1.000  Hf
  Hf45     1.0000 0.55783  0.57113  0.45903  Biso   1.000  Hf
  Hf46     1.0000 0.53658  0.56770  0.94387  Biso   1.000  Hf
  Hf47     1.0000 0.46828  0.42413  0.16594  Biso   1.000  Hf
  Hf48     1.0000 0.46674  0.43380  0.69268  Biso   1.000  Hf
  Hf49     1.0000 0.46413  0.93214  0.19317  Biso   1.000  Hf
  Hf50     1.0000 0.46612  0.93303  0.69635  Biso   1.000  Hf
  Hf51     1.0000 0.95670  0.43909  0.19285  Biso   1.000  Hf
  Hf52     1.0000 0.96636  0.43422  0.69863  Biso   1.000  Hf
  Hf53     1.0000 0.94263  0.92471  0.21142  Biso   1.000  Hf
  Hf54     1.0000 0.96368  0.93449  0.69415  Biso   1.000  Hf
  Hf55     1.0000 0.47149  0.30276  0.45380  Biso   1.000  Hf
  Hf56     1.0000 0.46335  0.31285  0.93381  Biso   1.000  Hf
  Hf57     1.0000 0.46504  0.81452  0.44842  Biso   1.000  Hf
  Hf58     1.0000 0.47315  0.81839  0.94872  Biso   1.000  Hf
  Hf59     1.0000 0.96219  0.31886  0.44410  Biso   1.000  Hf
  Hf60     1.0000 0.96684  0.32006  0.94964  Biso   1.000  Hf
  Hf61     1.0000 0.96475  0.81840  0.45209  Biso   1.000  Hf
  Hf62     1.0000 0.97397  0.82599  0.95676  Biso   1.000  Hf
  Hf63     1.0000 0.27849  0.12568  0.25483  Biso   1.000  Hf
  Hf64     1.0000 0.27057  0.11683  0.74598  Biso   1.000  Hf
  Hf65     1.0000 0.25273  0.62362  0.23745  Biso   1.000  Hf
  Hf66     1.0000 0.27115  0.61689  0.74893  Biso   1.000  Hf
  Hf67     1.0000 0.76771  0.11602  0.25131  Biso   1.000  Hf
  Hf68     1.0000 0.77067  0.11777  0.74852  Biso   1.000  Hf
  Hf69     1.0000 0.76604  0.61966  0.25142  Biso   1.000  Hf
  Hf70     1.0000 0.77222  0.61793  0.75232  Biso   1.000  Hf
  Hf71     1.0000 0.27109  0.13048  0.50021  Biso   1.000  Hf
  Hf72     1.0000 0.27383  0.13657  0.98746  Biso   1.000  Hf
  Hf73     1.0000 0.25663  0.64510  0.50572  Biso   1.000  Hf
  Hf74     1.0000 0.27108  0.62892  0.99590  Biso   1.000  Hf
  Hf75     1.0000 0.76840  0.13368  0.50179  Biso   1.000  Hf
  Hf76     1.0000 0.77172  0.13212  0.00018  Biso   1.000  Hf
  Hf77     1.0000 0.78092  0.63397  0.50218  Biso   1.000  Hf
  Hf78     1.0000 0.76902  0.63191  0.99952  Biso   1.000  Hf
  Hf79     1.0000 0.22160  0.37464  0.50489  Biso   1.000  Hf
  Hf80     1.0000 0.22915  0.38311  0.99506  Biso   1.000  Hf
  Hf81     1.0000 0.23010  0.88795  0.49867  Biso   1.000  Hf
  Hf82     1.0000 0.24396  0.87160  0.98895  Biso   1.000  Hf
  Hf83     1.0000 0.73204  0.38370  0.50194  Biso   1.000  Hf
  Hf84     1.0000 0.72828  0.38224  0.99821  Biso   1.000  Hf
  Hf85     1.0000 0.72934  0.88171  0.50323  Biso   1.000  Hf
  Hf86     1.0000 0.73216  0.88162  0.00013  Biso   1.000  Hf
  Hf87     1.0000 0.22047  0.36358  0.23901  Biso   1.000  Hf
  Hf88     1.0000 0.23307  0.37037  0.74838  Biso   1.000  Hf
  Hf89     1.0000 0.24160  0.85828  0.25629  Biso   1.000  Hf
  Hf90     1.0000 0.22950  0.86786  0.74620  Biso   1.000  Hf
  Hf91     1.0000 0.72556  0.36889  0.25089  Biso   1.000  Hf
  Hf92     1.0000 0.73336  0.36580  0.75121  Biso   1.000  Hf
  Hf93     1.0000 0.71674  0.86676  0.25036  Biso   1.000  Hf
  Hf94     1.0000 0.73065  0.86746  0.75036  Biso   1.000  Hf
