data_image0
_cell_length_a       10.0592
_cell_length_b       10.44
_cell_length_c       10.0667
_cell_angle_alpha    90
_cell_angle_beta     90
_cell_angle_gamma    90

_symmetry_space_group_name_H-M    "P 1"
_symmetry_int_tables_number       1

loop_
  _symmetry_equiv_pos_as_xyz
  'x, y, z'

loop_
  _atom_site_label
  _atom_site_occupancy
  _atom_site_fract_x
  _atom_site_fract_y
  _atom_site_fract_z
  _atom_site_thermal_displace_type
  _atom_site_B_iso_or_equiv
  _atom_site_type_symbol
  La1      1.0000 0.11737  0.99395  0.11100  Biso   1.000  La
  Hf1      1.0000 0.12539  0.00662  0.62609  Biso   1.000  Hf
  Hf2      1.0000 0.13501  0.51354  0.12331  Biso   1.000  Hf
  Hf3      1.0000 0.12902  0.50784  0.62444  Biso   1.000  Hf
  Hf4      1.0000 0.62995  0.01303  0.12652  Biso   1.000  Hf
  Hf5      1.0000 0.62654  0.00834  0.62622  Biso   1.000  Hf
  Hf6      1.0000 0.63791  0.51844  0.12274  Biso   1.000  Hf
  Hf7      1.0000 0.62724  0.50828  0.62722  Biso   1.000  Hf
  La2      1.0000 0.11790  0.23668  0.37279  Biso   1.000  La
  Hf8      1.0000 0.12888  0.22609  0.87006  Biso   1.000  Hf
  Hf9      1.0000 0.12969  0.72569  0.37686  Biso   1.000  Hf
  Hf10     1.0000 0.12983  0.72176  0.87687  Biso   1.000  Hf
  Hf11     1.0000 0.63096  0.22867  0.37597  Biso   1.000  Hf
  Hf12     1.0000 0.63259  0.22158  0.87263  Biso   1.000  Hf
  Hf13     1.0000 0.63420  0.72492  0.37871  Biso   1.000  Hf
  Hf14     1.0000 0.63013  0.72346  0.87592  Biso   1.000  Hf
  Hf15     1.0000 0.38200  0.27983  0.10505  Biso   1.000  Hf
  Hf16     1.0000 0.36236  0.25646  0.61932  Biso   1.000  Hf
  Hf17     1.0000 0.37118  0.76218  0.12453  Biso   1.000  Hf
  Hf18     1.0000 0.35779  0.75555  0.63009  Biso   1.000  Hf
  Hf19     1.0000 0.86274  0.26850  0.12188  Biso   1.000  Hf
  Hf20     1.0000 0.85842  0.26010  0.62849  Biso   1.000  Hf
  Hf21     1.0000 0.86194  0.76451  0.13153  Biso   1.000  Hf
  Hf22     1.0000 0.86367  0.75526  0.62616  Biso   1.000  Hf
  Hf23     1.0000 0.36714  0.47901  0.37236  Biso   1.000  Hf
  Hf24     1.0000 0.36191  0.47718  0.86836  Biso   1.000  Hf
  Hf25     1.0000 0.37581  0.96024  0.38792  Biso   1.000  Hf
  Hf26     1.0000 0.36519  0.97447  0.87380  Biso   1.000  Hf
  Hf27     1.0000 0.85810  0.47901  0.37881  Biso   1.000  Hf
  Hf28     1.0000 0.86172  0.47436  0.87434  Biso   1.000  Hf
  Hf29     1.0000 0.85555  0.97472  0.38406  Biso   1.000  Hf
  Hf30     1.0000 0.85948  0.97109  0.87130  Biso   1.000  Hf
  Hf31     1.0000 0.02617  0.18325  0.17242  Biso   1.000  Hf
  Hf32     1.0000 0.03576  0.18235  0.67859  Biso   1.000  Hf
  Hf33     1.0000 0.03675  0.68227  0.19343  Biso   1.000  Hf
  Hf34     1.0000 0.03079  0.67425  0.69862  Biso   1.000  Hf
  Hf35     1.0000 0.52448  0.17941  0.19731  Biso   1.000  Hf
  Hf36     1.0000 0.53035  0.17478  0.69477  Biso   1.000  Hf
  Hf37     1.0000 0.53522  0.68120  0.19933  Biso   1.000  Hf
  Hf38     1.0000 0.52728  0.67339  0.70046  Biso   1.000  Hf
  Hf39     1.0000 0.02305  0.04415  0.45129  Biso   1.000  Hf
  Hf40     1.0000 0.02778  0.06063  0.90580  Biso   1.000  Hf
  Hf41     1.0000 0.03299  0.55594  0.44579  Biso   1.000  Hf
  Hf42     1.0000 0.02801  0.55876  0.94637  Biso   1.000  Hf
  Hf43     1.0000 0.53787  0.05664  0.44435  Biso   1.000  Hf
  Hf44     1.0000 0.52862  0.05983  0.94513  Biso   1.000  Hf
  Hf45     1.0000 0.53179  0.56147  0.44680  Biso   1.000  Hf
  Hf46     1.0000 0.52873  0.55862  0.94638  Biso   1.000  Hf
  Hf47     1.0000 0.47514  0.43587  0.19300  Biso   1.000  Hf
  Hf48     1.0000 0.45992  0.42361  0.69179  Biso   1.000  Hf
  Hf49     1.0000 0.45709  0.93927  0.19816  Biso   1.000  Hf
  Hf50     1.0000 0.46117  0.92398  0.69593  Biso   1.000  Hf
  Hf51     1.0000 0.97043  0.42954  0.20444  Biso   1.000  Hf
  Hf52     1.0000 0.96029  0.42686  0.69731  Biso   1.000  Hf
  Hf53     1.0000 0.94075  0.92202  0.21324  Biso   1.000  Hf
  Hf54     1.0000 0.95887  0.92087  0.69337  Biso   1.000  Hf
  Hf55     1.0000 0.45951  0.30717  0.44013  Biso   1.000  Hf
  Hf56     1.0000 0.46578  0.31372  0.93584  Biso   1.000  Hf
  Hf57     1.0000 0.46688  0.80668  0.45607  Biso   1.000  Hf
  Hf58     1.0000 0.47267  0.81192  0.95336  Biso   1.000  Hf
  Hf59     1.0000 0.93745  0.31658  0.45416  Biso   1.000  Hf
  Hf60     1.0000 0.95834  0.30869  0.94254  Biso   1.000  Hf
  Hf61     1.0000 0.95665  0.80082  0.44689  Biso   1.000  Hf
  Hf62     1.0000 0.97228  0.81737  0.96242  Biso   1.000  Hf
  Hf63     1.0000 0.26596  0.10914  0.74737  Biso   1.000  Hf
  Hf64     1.0000 0.26770  0.60928  0.24841  Biso   1.000  Hf
  Hf65     1.0000 0.26365  0.60854  0.74840  Biso   1.000  Hf
  Hf66     1.0000 0.76145  0.11321  0.25098  Biso   1.000  Hf
  Hf67     1.0000 0.76370  0.10749  0.74999  Biso   1.000  Hf
  Hf68     1.0000 0.76990  0.61601  0.25004  Biso   1.000  Hf
  Hf69     1.0000 0.76497  0.60756  0.74883  Biso   1.000  Hf
  Hf70     1.0000 0.27870  0.11119  0.49132  Biso   1.000  Hf
  Hf71     1.0000 0.27656  0.13882  0.00253  Biso   1.000  Hf
  Hf72     1.0000 0.26666  0.62792  0.49870  Biso   1.000  Hf
  Hf73     1.0000 0.26500  0.61853  0.99847  Biso   1.000  Hf
  Hf74     1.0000 0.76204  0.12658  0.50390  Biso   1.000  Hf
  Hf75     1.0000 0.76281  0.11913  0.99929  Biso   1.000  Hf
  Hf76     1.0000 0.76576  0.62240  0.50102  Biso   1.000  Hf
  Hf77     1.0000 0.76450  0.62157  0.99774  Biso   1.000  Hf
  Hf78     1.0000 0.23876  0.38670  0.50254  Biso   1.000  Hf
  Hf79     1.0000 0.22620  0.37630  0.98841  Biso   1.000  Hf
  Hf80     1.0000 0.22577  0.86986  0.50360  Biso   1.000  Hf
  Hf81     1.0000 0.24287  0.85725  0.98761  Biso   1.000  Hf
  Hf82     1.0000 0.71427  0.37632  0.50136  Biso   1.000  Hf
  Hf83     1.0000 0.72419  0.37256  0.99788  Biso   1.000  Hf
  Hf84     1.0000 0.72452  0.87100  0.50480  Biso   1.000  Hf
  Hf85     1.0000 0.73869  0.88378  0.00235  Biso   1.000  Hf
  Hf86     1.0000 0.24703  0.36274  0.23291  Biso   1.000  Hf
  Hf87     1.0000 0.22659  0.35747  0.74405  Biso   1.000  Hf
  Hf88     1.0000 0.24275  0.85400  0.25929  Biso   1.000  Hf
  Hf89     1.0000 0.22494  0.85802  0.74926  Biso   1.000  Hf
  Hf90     1.0000 0.72889  0.36566  0.24981  Biso   1.000  Hf
  Hf91     1.0000 0.72432  0.35922  0.75099  Biso   1.000  Hf
  Hf92     1.0000 0.71248  0.86233  0.25224  Biso   1.000  Hf
  Hf93     1.0000 0.72672  0.85684  0.75145  Biso   1.000  Hf
