data_image0
_cell_length_a       10.0856
_cell_length_b       10.2629
_cell_length_c       10.4794
_cell_angle_alpha    90
_cell_angle_beta     90
_cell_angle_gamma    90

_symmetry_space_group_name_H-M    "P 1"
_symmetry_int_tables_number       1

loop_
  _symmetry_equiv_pos_as_xyz
  'x, y, z'

loop_
  _atom_site_label
  _atom_site_occupancy
  _atom_site_fract_x
  _atom_site_fract_y
  _atom_site_fract_z
  _atom_site_thermal_displace_type
  _atom_site_B_iso_or_equiv
  _atom_site_type_symbol
  La1      1.0000 0.13433  0.01225  0.16341  Biso   1.000  La
  Hf1      1.0000 0.13807  0.02055  0.67224  Biso   1.000  Hf
  Hf2      1.0000 0.13787  0.52022  0.17135  Biso   1.000  Hf
  Hf3      1.0000 0.13678  0.52071  0.67108  Biso   1.000  Hf
  Hf4      1.0000 0.13750  0.22716  0.42294  Biso   1.000  Hf
  Hf5      1.0000 0.13660  0.23313  0.91894  Biso   1.000  Hf
  Hf6      1.0000 0.13774  0.72758  0.42243  Biso   1.000  Hf
  Hf7      1.0000 0.13760  0.72714  0.92057  Biso   1.000  Hf
  Hf8      1.0000 0.35915  0.26946  0.17118  Biso   1.000  Hf
  Hf9      1.0000 0.35933  0.27010  0.67129  Biso   1.000  Hf
  Hf10     1.0000 0.36479  0.76664  0.17122  Biso   1.000  Hf
  Hf11     1.0000 0.35792  0.77072  0.67113  Biso   1.000  Hf
  Hf12     1.0000 0.35874  0.47737  0.42080  Biso   1.000  Hf
  Hf13     1.0000 0.35862  0.47803  0.92199  Biso   1.000  Hf
  Hf14     1.0000 0.35955  0.97849  0.42217  Biso   1.000  Hf
  Hf15     1.0000 0.36181  0.97953  0.91876  Biso   1.000  Hf
  Hf16     1.0000 0.63984  0.02082  0.08040  Biso   1.000  Hf
  Hf17     1.0000 0.63725  0.02100  0.58039  Biso   1.000  Hf
  Hf18     1.0000 0.63723  0.51875  0.07748  Biso   1.000  Hf
  Hf19     1.0000 0.63620  0.52053  0.57680  Biso   1.000  Hf
  Hf20     1.0000 0.63676  0.22979  0.32853  Biso   1.000  Hf
  Hf21     1.0000 0.63733  0.22871  0.82810  Biso   1.000  Hf
  Hf22     1.0000 0.63807  0.72848  0.32916  Biso   1.000  Hf
  Hf23     1.0000 0.63547  0.72844  0.82680  Biso   1.000  Hf
  Hf24     1.0000 0.85863  0.27363  0.07607  Biso   1.000  Hf
  Hf25     1.0000 0.85969  0.27135  0.57825  Biso   1.000  Hf
  Hf26     1.0000 0.85566  0.76679  0.07746  Biso   1.000  Hf
  Hf27     1.0000 0.85996  0.77110  0.57918  Biso   1.000  Hf
  Hf28     1.0000 0.86000  0.47923  0.32814  Biso   1.000  Hf
  Hf29     1.0000 0.85758  0.47982  0.82572  Biso   1.000  Hf
  Hf30     1.0000 0.85295  0.97961  0.33387  Biso   1.000  Hf
  Hf31     1.0000 0.85869  0.97899  0.83025  Biso   1.000  Hf
  Hf32     1.0000 0.03193  0.18622  0.07960  Biso   1.000  Hf
  Hf33     1.0000 0.03257  0.16965  0.59048  Biso   1.000  Hf
  Hf34     1.0000 0.03306  0.66815  0.08419  Biso   1.000  Hf
  Hf35     1.0000 0.03118  0.66600  0.58541  Biso   1.000  Hf
  Hf36     1.0000 0.02159  0.08685  0.34920  Biso   1.000  Hf
  Hf37     1.0000 0.03325  0.08219  0.83789  Biso   1.000  Hf
  Hf38     1.0000 0.03144  0.58489  0.33429  Biso   1.000  Hf
  Hf39     1.0000 0.02965  0.58405  0.83236  Biso   1.000  Hf
  Hf40     1.0000 0.46700  0.41252  0.08183  Biso   1.000  Hf
  Hf41     1.0000 0.46629  0.41303  0.58202  Biso   1.000  Hf
  Hf42     1.0000 0.46802  0.91647  0.08418  Biso   1.000  Hf
  Hf43     1.0000 0.46540  0.91374  0.58346  Biso   1.000  Hf
  Hf44     1.0000 0.46727  0.33744  0.33189  Biso   1.000  Hf
  Hf45     1.0000 0.46576  0.33476  0.83214  Biso   1.000  Hf
  Hf46     1.0000 0.47026  0.83582  0.33335  Biso   1.000  Hf
  Hf47     1.0000 0.46667  0.83578  0.83022  Biso   1.000  Hf
  Hf48     1.0000 0.28167  0.12844  0.30360  Biso   1.000  Hf
  Hf49     1.0000 0.27397  0.12382  0.79220  Biso   1.000  Hf
  Hf50     1.0000 0.27569  0.61934  0.29461  Biso   1.000  Hf
  Hf51     1.0000 0.27364  0.62381  0.79500  Biso   1.000  Hf
  Hf52     1.0000 0.28684  0.13549  0.03347  Biso   1.000  Hf
  Hf53     1.0000 0.27399  0.12454  0.54691  Biso   1.000  Hf
  Hf54     1.0000 0.27440  0.62038  0.04619  Biso   1.000  Hf
  Hf55     1.0000 0.27360  0.62516  0.54512  Biso   1.000  Hf
  Hf56     1.0000 0.22094  0.37246  0.29448  Biso   1.000  Hf
  Hf57     1.0000 0.22285  0.37511  0.79387  Biso   1.000  Hf
  Hf58     1.0000 0.23279  0.86182  0.30177  Biso   1.000  Hf
  Hf59     1.0000 0.22174  0.87357  0.79241  Biso   1.000  Hf
  Hf60     1.0000 0.22235  0.37794  0.04452  Biso   1.000  Hf
  Hf61     1.0000 0.22281  0.37579  0.54525  Biso   1.000  Hf
  Hf62     1.0000 0.24224  0.86085  0.03325  Biso   1.000  Hf
  Hf63     1.0000 0.22157  0.87599  0.54624  Biso   1.000  Hf
  Hf64     1.0000 0.53226  0.16495  0.16708  Biso   1.000  Hf
  Hf65     1.0000 0.53077  0.16421  0.66697  Biso   1.000  Hf
  Hf66     1.0000 0.53234  0.66069  0.16803  Biso   1.000  Hf
  Hf67     1.0000 0.52918  0.66290  0.66685  Biso   1.000  Hf
  Hf68     1.0000 0.53241  0.08471  0.41771  Biso   1.000  Hf
  Hf69     1.0000 0.53548  0.08302  0.91492  Biso   1.000  Hf
  Hf70     1.0000 0.52958  0.58536  0.41748  Biso   1.000  Hf
  Hf71     1.0000 0.52806  0.58642  0.91780  Biso   1.000  Hf
  Hf72     1.0000 0.96231  0.42132  0.16388  Biso   1.000  Hf
  Hf73     1.0000 0.96413  0.41836  0.66312  Biso   1.000  Hf
  Hf74     1.0000 0.93905  0.91104  0.17191  Biso   1.000  Hf
  Hf75     1.0000 0.96388  0.91584  0.66779  Biso   1.000  Hf
  Hf76     1.0000 0.96584  0.33618  0.41677  Biso   1.000  Hf
  Hf77     1.0000 0.96176  0.33650  0.90949  Biso   1.000  Hf
  Hf78     1.0000 0.96554  0.83451  0.41778  Biso   1.000  Hf
  Hf79     1.0000 0.96723  0.83672  0.91995  Biso   1.000  Hf
  Hf80     1.0000 0.77561  0.12387  0.95583  Biso   1.000  Hf
  Hf81     1.0000 0.77089  0.12604  0.45850  Biso   1.000  Hf
  Hf82     1.0000 0.77103  0.62165  0.95246  Biso   1.000  Hf
  Hf83     1.0000 0.77437  0.62403  0.45454  Biso   1.000  Hf
  Hf84     1.0000 0.77486  0.12764  0.20713  Biso   1.000  Hf
  Hf85     1.0000 0.77478  0.12596  0.70652  Biso   1.000  Hf
  Hf86     1.0000 0.77418  0.62584  0.20426  Biso   1.000  Hf
  Hf87     1.0000 0.77240  0.62664  0.70309  Biso   1.000  Hf
  Hf88     1.0000 0.71957  0.37428  0.95269  Biso   1.000  Hf
  Hf89     1.0000 0.72266  0.37500  0.45375  Biso   1.000  Hf
  Hf90     1.0000 0.72167  0.87260  0.95494  Biso   1.000  Hf
  Hf91     1.0000 0.72185  0.87339  0.45809  Biso   1.000  Hf
  Hf92     1.0000 0.72180  0.37690  0.20469  Biso   1.000  Hf
  Hf93     1.0000 0.72211  0.37556  0.70310  Biso   1.000  Hf
  Hf94     1.0000 0.70897  0.87570  0.20735  Biso   1.000  Hf
  Hf95     1.0000 0.72216  0.87584  0.70605  Biso   1.000  Hf
