data_image0
_cell_length_a       10.0571
_cell_length_b       10.2208
_cell_length_c       10.0569
_cell_angle_alpha    90
_cell_angle_beta     90
_cell_angle_gamma    90

_symmetry_space_group_name_H-M    "P 1"
_symmetry_int_tables_number       1

loop_
  _symmetry_equiv_pos_as_xyz
  'x, y, z'

loop_
  _atom_site_label
  _atom_site_occupancy
  _atom_site_fract_x
  _atom_site_fract_y
  _atom_site_fract_z
  _atom_site_thermal_displace_type
  _atom_site_B_iso_or_equiv
  _atom_site_type_symbol
  La1      1.0000 0.12562  0.00034  0.12561  Biso   1.000  La
  Hf1      1.0000 0.12557  0.00045  0.62559  Biso   1.000  Hf
  Hf2      1.0000 0.12572  0.50034  0.12564  Biso   1.000  Hf
  Hf3      1.0000 0.12570  0.50050  0.62564  Biso   1.000  Hf
  Hf4      1.0000 0.62561  0.00032  0.12559  Biso   1.000  Hf
  Hf5      1.0000 0.62560  0.00042  0.62562  Biso   1.000  Hf
  Hf6      1.0000 0.62572  0.50039  0.12564  Biso   1.000  Hf
  Hf7      1.0000 0.62568  0.50050  0.62564  Biso   1.000  Hf
  Hf8      1.0000 0.12376  0.25254  0.37838  Biso   1.000  Hf
  Hf9      1.0000 0.12769  0.25266  0.87293  Biso   1.000  Hf
  Hf10     1.0000 0.12772  0.74826  0.37833  Biso   1.000  Hf
  Hf11     1.0000 0.12375  0.74836  0.87291  Biso   1.000  Hf
  Hf12     1.0000 0.62546  0.25008  0.37561  Biso   1.000  Hf
  Hf13     1.0000 0.62594  0.25022  0.87573  Biso   1.000  Hf
  Hf14     1.0000 0.62599  0.75069  0.37557  Biso   1.000  Hf
  Hf15     1.0000 0.62546  0.75080  0.87569  Biso   1.000  Hf
  Hf16     1.0000 0.37843  0.25248  0.12372  Biso   1.000  Hf
  Hf17     1.0000 0.37565  0.25015  0.62541  Biso   1.000  Hf
  Hf18     1.0000 0.37846  0.74820  0.12761  Biso   1.000  Hf
  Hf19     1.0000 0.37567  0.75076  0.62588  Biso   1.000  Hf
  Hf20     1.0000 0.87299  0.25250  0.12764  Biso   1.000  Hf
  Hf21     1.0000 0.87576  0.25017  0.62592  Biso   1.000  Hf
  Hf22     1.0000 0.87304  0.74818  0.12364  Biso   1.000  Hf
  Hf23     1.0000 0.87579  0.75074  0.62536  Biso   1.000  Hf
  Hf24     1.0000 0.37780  0.00253  0.37780  Biso   1.000  Hf
  Hf25     1.0000 0.37790  0.99841  0.87335  Biso   1.000  Hf
  Hf26     1.0000 0.37654  0.49972  0.37648  Biso   1.000  Hf
  Hf27     1.0000 0.37651  0.50110  0.87481  Biso   1.000  Hf
  Hf28     1.0000 0.87347  0.99830  0.37778  Biso   1.000  Hf
  Hf29     1.0000 0.87335  0.00266  0.87339  Biso   1.000  Hf
  Hf30     1.0000 0.87487  0.50099  0.37648  Biso   1.000  Hf
  Hf31     1.0000 0.87482  0.49987  0.87477  Biso   1.000  Hf
  Hf32     1.0000 0.99683  0.15566  0.99683  Biso   1.000  Hf
  Hf33     1.0000 0.00780  0.14992  0.51108  Biso   1.000  Hf
  Hf34     1.0000 0.00496  0.64506  0.00484  Biso   1.000  Hf
  Hf35     1.0000 0.00142  0.64722  0.50434  Biso   1.000  Hf
  Hf36     1.0000 0.51112  0.14980  0.00779  Biso   1.000  Hf
  Hf37     1.0000 0.50459  0.14858  0.50458  Biso   1.000  Hf
  Hf38     1.0000 0.50445  0.64710  0.00134  Biso   1.000  Hf
  Hf39     1.0000 0.50077  0.64863  0.50069  Biso   1.000  Hf
  Hf40     1.0000 0.98635  0.11767  0.26499  Biso   1.000  Hf
  Hf41     1.0000 0.99834  0.10174  0.75339  Biso   1.000  Hf
  Hf42     1.0000 0.99844  0.60060  0.25273  Biso   1.000  Hf
  Hf43     1.0000 0.00117  0.60239  0.75379  Biso   1.000  Hf
  Hf44     1.0000 0.49794  0.10160  0.25296  Biso   1.000  Hf
  Hf45     1.0000 0.49910  0.10294  0.75222  Biso   1.000  Hf
  Hf46     1.0000 0.49741  0.60223  0.25004  Biso   1.000  Hf
  Hf47     1.0000 0.50057  0.60250  0.75066  Biso   1.000  Hf
  Hf48     1.0000 0.00497  0.35562  0.24639  Biso   1.000  Hf
  Hf49     1.0000 0.00139  0.35372  0.74691  Biso   1.000  Hf
  Hf50     1.0000 0.99693  0.84529  0.25439  Biso   1.000  Hf
  Hf51     1.0000 0.00785  0.85102  0.74016  Biso   1.000  Hf
  Hf52     1.0000 0.50446  0.35360  0.24992  Biso   1.000  Hf
  Hf53     1.0000 0.50076  0.35228  0.75057  Biso   1.000  Hf
  Hf54     1.0000 0.51117  0.85090  0.24345  Biso   1.000  Hf
  Hf55     1.0000 0.50466  0.85233  0.74665  Biso   1.000  Hf
  Hf56     1.0000 0.99850  0.40032  0.99847  Biso   1.000  Hf
  Hf57     1.0000 0.00126  0.39858  0.49743  Biso   1.000  Hf
  Hf58     1.0000 0.98639  0.88324  0.98627  Biso   1.000  Hf
  Hf59     1.0000 0.99836  0.89922  0.49787  Biso   1.000  Hf
  Hf60     1.0000 0.49751  0.39846  0.00121  Biso   1.000  Hf
  Hf61     1.0000 0.50065  0.39841  0.50062  Biso   1.000  Hf
  Hf62     1.0000 0.49798  0.89933  0.99826  Biso   1.000  Hf
  Hf63     1.0000 0.49913  0.89799  0.49903  Biso   1.000  Hf
  Hf64     1.0000 0.25449  0.15538  0.25446  Biso   1.000  Hf
  Hf65     1.0000 0.24356  0.14989  0.74025  Biso   1.000  Hf
  Hf66     1.0000 0.24634  0.64511  0.24625  Biso   1.000  Hf
  Hf67     1.0000 0.24986  0.64724  0.74675  Biso   1.000  Hf
  Hf68     1.0000 0.74028  0.14978  0.24356  Biso   1.000  Hf
  Hf69     1.0000 0.74674  0.14864  0.74674  Biso   1.000  Hf
  Hf70     1.0000 0.74684  0.64713  0.24978  Biso   1.000  Hf
  Hf71     1.0000 0.75051  0.64871  0.75045  Biso   1.000  Hf
  Hf72     1.0000 0.26499  0.11785  0.98632  Biso   1.000  Hf
  Hf73     1.0000 0.25299  0.10167  0.49791  Biso   1.000  Hf
  Hf74     1.0000 0.25280  0.60079  0.99834  Biso   1.000  Hf
  Hf75     1.0000 0.25013  0.60229  0.49731  Biso   1.000  Hf
  Hf76     1.0000 0.75339  0.10180  0.99834  Biso   1.000  Hf
  Hf77     1.0000 0.75224  0.10287  0.49909  Biso   1.000  Hf
  Hf78     1.0000 0.75390  0.60221  0.00108  Biso   1.000  Hf
  Hf79     1.0000 0.75074  0.60244  0.50050  Biso   1.000  Hf
  Hf80     1.0000 0.24646  0.35557  0.00492  Biso   1.000  Hf
  Hf81     1.0000 0.24997  0.35366  0.50440  Biso   1.000  Hf
  Hf82     1.0000 0.25450  0.84549  0.99680  Biso   1.000  Hf
  Hf83     1.0000 0.24355  0.85097  0.51106  Biso   1.000  Hf
  Hf84     1.0000 0.74699  0.35356  0.00134  Biso   1.000  Hf
  Hf85     1.0000 0.75062  0.35222  0.50071  Biso   1.000  Hf
  Hf86     1.0000 0.74032  0.85086  0.00773  Biso   1.000  Hf
  Hf87     1.0000 0.74675  0.85228  0.50457  Biso   1.000  Hf
  Hf88     1.0000 0.25288  0.40009  0.25282  Biso   1.000  Hf
  Hf89     1.0000 0.25012  0.39860  0.75386  Biso   1.000  Hf
  Hf90     1.0000 0.26511  0.88304  0.26497  Biso   1.000  Hf
  Hf91     1.0000 0.25308  0.89923  0.75332  Biso   1.000  Hf
  Hf92     1.0000 0.75393  0.39848  0.25007  Biso   1.000  Hf
  Hf93     1.0000 0.75073  0.39847  0.75066  Biso   1.000  Hf
  Hf94     1.0000 0.75347  0.89909  0.25295  Biso   1.000  Hf
  Hf95     1.0000 0.75233  0.89803  0.75221  Biso   1.000  Hf
