data_image0
_cell_length_a       10.0733
_cell_length_b       10.2676
_cell_length_c       10.466
_cell_angle_alpha    90
_cell_angle_beta     90
_cell_angle_gamma    90

_symmetry_space_group_name_H-M    "P 1"
_symmetry_int_tables_number       1

loop_
  _symmetry_equiv_pos_as_xyz
  'x, y, z'

loop_
  _atom_site_label
  _atom_site_occupancy
  _atom_site_fract_x
  _atom_site_fract_y
  _atom_site_fract_z
  _atom_site_thermal_displace_type
  _atom_site_B_iso_or_equiv
  _atom_site_type_symbol
  La1      1.0000 0.13677  0.00996  0.16621  Biso   1.000  La
  Hf1      1.0000 0.13725  0.02232  0.67085  Biso   1.000  Hf
  Hf2      1.0000 0.13743  0.52138  0.17097  Biso   1.000  Hf
  Hf3      1.0000 0.13889  0.51985  0.67277  Biso   1.000  Hf
  Hf4      1.0000 0.13682  0.22844  0.42300  Biso   1.000  Hf
  Hf5      1.0000 0.13809  0.23295  0.91968  Biso   1.000  Hf
  Hf6      1.0000 0.13378  0.72352  0.42758  Biso   1.000  Hf
  Hf7      1.0000 0.13880  0.72866  0.91904  Biso   1.000  Hf
  Hf8      1.0000 0.36094  0.27048  0.17103  Biso   1.000  Hf
  Hf9      1.0000 0.36098  0.27174  0.67141  Biso   1.000  Hf
  Hf10     1.0000 0.37122  0.76318  0.16276  Biso   1.000  Hf
  Hf11     1.0000 0.36142  0.77174  0.66905  Biso   1.000  Hf
  Hf12     1.0000 0.36046  0.47941  0.42121  Biso   1.000  Hf
  Hf13     1.0000 0.36069  0.47910  0.92158  Biso   1.000  Hf
  Hf14     1.0000 0.36948  0.98595  0.42540  Biso   1.000  Hf
  Hf15     1.0000 0.36531  0.98164  0.91712  Biso   1.000  Hf
  Hf16     1.0000 0.63970  0.02139  0.08062  Biso   1.000  Hf
  Hf17     1.0000 0.64024  0.02387  0.58296  Biso   1.000  Hf
  Hf18     1.0000 0.64056  0.51740  0.07681  Biso   1.000  Hf
  Hf19     1.0000 0.63742  0.52218  0.57737  Biso   1.000  Hf
  Hf20     1.0000 0.63873  0.23220  0.32845  Biso   1.000  Hf
  Hf21     1.0000 0.63855  0.23051  0.82884  Biso   1.000  Hf
  Hf22     1.0000 0.63655  0.73128  0.33020  Biso   1.000  Hf
  Hf23     1.0000 0.63760  0.72992  0.82803  Biso   1.000  Hf
  Hf24     1.0000 0.86200  0.27216  0.07680  Biso   1.000  Hf
  Hf25     1.0000 0.86134  0.27346  0.57873  Biso   1.000  Hf
  Hf26     1.0000 0.85796  0.76768  0.07874  Biso   1.000  Hf
  Hf27     1.0000 0.86003  0.77281  0.57983  Biso   1.000  Hf
  Hf28     1.0000 0.86021  0.47995  0.32815  Biso   1.000  Hf
  Hf29     1.0000 0.86007  0.48051  0.82655  Biso   1.000  Hf
  Hf30     1.0000 0.85614  0.98106  0.33351  Biso   1.000  Hf
  Hf31     1.0000 0.86270  0.98049  0.83096  Biso   1.000  Hf
  Hf32     1.0000 0.03481  0.18182  0.08165  Biso   1.000  Hf
  Hf33     1.0000 0.03441  0.17320  0.59110  Biso   1.000  Hf
  Hf34     1.0000 0.03609  0.67110  0.08556  Biso   1.000  Hf
  Hf35     1.0000 0.03202  0.66693  0.58682  Biso   1.000  Hf
  Hf36     1.0000 0.02482  0.08400  0.35038  Biso   1.000  Hf
  Hf37     1.0000 0.03540  0.08153  0.83755  Biso   1.000  Hf
  Hf38     1.0000 0.03228  0.58163  0.33587  Biso   1.000  Hf
  Hf39     1.0000 0.03279  0.58304  0.83430  Biso   1.000  Hf
  Hf40     1.0000 0.46829  0.41400  0.08284  Biso   1.000  Hf
  Hf41     1.0000 0.46614  0.41639  0.58194  Biso   1.000  Hf
  Hf42     1.0000 0.46988  0.91760  0.08327  Biso   1.000  Hf
  Hf43     1.0000 0.46902  0.91817  0.58668  Biso   1.000  Hf
  Hf44     1.0000 0.46772  0.33742  0.33303  Biso   1.000  Hf
  Hf45     1.0000 0.46662  0.33529  0.83286  Biso   1.000  Hf
  Hf46     1.0000 0.45540  0.83373  0.33223  Biso   1.000  Hf
  Hf47     1.0000 0.46740  0.83495  0.83107  Biso   1.000  Hf
  Hf48     1.0000 0.28235  0.12760  0.30391  Biso   1.000  Hf
  Hf49     1.0000 0.27489  0.12491  0.79195  Biso   1.000  Hf
  Hf50     1.0000 0.27143  0.63373  0.29472  Biso   1.000  Hf
  Hf51     1.0000 0.27643  0.62503  0.79456  Biso   1.000  Hf
  Hf52     1.0000 0.28765  0.13388  0.03477  Biso   1.000  Hf
  Hf53     1.0000 0.27492  0.12679  0.54782  Biso   1.000  Hf
  Hf54     1.0000 0.27631  0.61893  0.04514  Biso   1.000  Hf
  Hf55     1.0000 0.27435  0.62467  0.54669  Biso   1.000  Hf
  Hf56     1.0000 0.22374  0.37667  0.29466  Biso   1.000  Hf
  Hf57     1.0000 0.22407  0.37566  0.79427  Biso   1.000  Hf
  Hf58     1.0000 0.22376  0.87405  0.78788  Biso   1.000  Hf
  Hf59     1.0000 0.22327  0.37720  0.04469  Biso   1.000  Hf
  Hf60     1.0000 0.22370  0.37666  0.54509  Biso   1.000  Hf
  Hf61     1.0000 0.24326  0.86044  0.03197  Biso   1.000  Hf
  Hf62     1.0000 0.22547  0.87725  0.53457  Biso   1.000  Hf
  Hf63     1.0000 0.53377  0.16634  0.16724  Biso   1.000  Hf
  Hf64     1.0000 0.53324  0.16792  0.66613  Biso   1.000  Hf
  Hf65     1.0000 0.53648  0.66191  0.16623  Biso   1.000  Hf
  Hf66     1.0000 0.53238  0.66613  0.66608  Biso   1.000  Hf
  Hf67     1.0000 0.53694  0.08605  0.41869  Biso   1.000  Hf
  Hf68     1.0000 0.53656  0.08366  0.91358  Biso   1.000  Hf
  Hf69     1.0000 0.52963  0.58734  0.41673  Biso   1.000  Hf
  Hf70     1.0000 0.53094  0.58687  0.91733  Biso   1.000  Hf
  Hf71     1.0000 0.96268  0.42285  0.16231  Biso   1.000  Hf
  Hf72     1.0000 0.96472  0.42112  0.66288  Biso   1.000  Hf
  Hf73     1.0000 0.94093  0.91507  0.16931  Biso   1.000  Hf
  Hf74     1.0000 0.96571  0.91846  0.66513  Biso   1.000  Hf
  Hf75     1.0000 0.96524  0.33495  0.41512  Biso   1.000  Hf
  Hf76     1.0000 0.96297  0.33509  0.90970  Biso   1.000  Hf
  Hf77     1.0000 0.96655  0.83320  0.41565  Biso   1.000  Hf
  Hf78     1.0000 0.96818  0.83597  0.91788  Biso   1.000  Hf
  Hf79     1.0000 0.77669  0.12520  0.95652  Biso   1.000  Hf
  Hf80     1.0000 0.77329  0.12744  0.45914  Biso   1.000  Hf
  Hf81     1.0000 0.77414  0.62318  0.95360  Biso   1.000  Hf
  Hf82     1.0000 0.77390  0.62654  0.45444  Biso   1.000  Hf
  Hf83     1.0000 0.77605  0.12847  0.20767  Biso   1.000  Hf
  Hf84     1.0000 0.77670  0.12811  0.70741  Biso   1.000  Hf
  Hf85     1.0000 0.77451  0.62762  0.20606  Biso   1.000  Hf
  Hf86     1.0000 0.77475  0.62836  0.70381  Biso   1.000  Hf
  Hf87     1.0000 0.72162  0.37543  0.95346  Biso   1.000  Hf
  Hf88     1.0000 0.72318  0.37710  0.45414  Biso   1.000  Hf
  Hf89     1.0000 0.72371  0.87427  0.95584  Biso   1.000  Hf
  Hf90     1.0000 0.72220  0.87499  0.45833  Biso   1.000  Hf
  Hf91     1.0000 0.72349  0.37692  0.20467  Biso   1.000  Hf
  Hf92     1.0000 0.72284  0.37770  0.70366  Biso   1.000  Hf
  Hf93     1.0000 0.70865  0.87702  0.20938  Biso   1.000  Hf
  Hf94     1.0000 0.72493  0.87771  0.70707  Biso   1.000  Hf
