data_image0
_cell_length_a       10.0068
_cell_length_b       10.3829
_cell_length_c       10.0493
_cell_angle_alpha    90
_cell_angle_beta     90
_cell_angle_gamma    90

_symmetry_space_group_name_H-M    "P 1"
_symmetry_int_tables_number       1

loop_
  _symmetry_equiv_pos_as_xyz
  'x, y, z'

loop_
  _atom_site_label
  _atom_site_occupancy
  _atom_site_fract_x
  _atom_site_fract_y
  _atom_site_fract_z
  _atom_site_thermal_displace_type
  _atom_site_B_iso_or_equiv
  _atom_site_type_symbol
  La1      1.0000 0.12332  0.00633  0.12041  Biso   1.000  La
  Hf1      1.0000 0.13049  0.01512  0.62535  Biso   1.000  Hf
  Hf2      1.0000 0.13327  0.51577  0.12500  Biso   1.000  Hf
  Hf3      1.0000 0.13161  0.51521  0.62579  Biso   1.000  Hf
  Hf4      1.0000 0.63373  0.01513  0.12561  Biso   1.000  Hf
  Hf5      1.0000 0.63067  0.01582  0.62576  Biso   1.000  Hf
  Hf6      1.0000 0.63227  0.51460  0.12607  Biso   1.000  Hf
  Hf7      1.0000 0.63084  0.51396  0.62630  Biso   1.000  Hf
  Hf8      1.0000 0.13281  0.23344  0.37742  Biso   1.000  Hf
  Hf9      1.0000 0.13105  0.23448  0.87004  Biso   1.000  Hf
  Hf10     1.0000 0.13260  0.73173  0.37705  Biso   1.000  Hf
  Hf11     1.0000 0.13280  0.73093  0.87545  Biso   1.000  Hf
  Hf12     1.0000 0.63098  0.23255  0.37446  Biso   1.000  Hf
  Hf13     1.0000 0.63153  0.23151  0.87585  Biso   1.000  Hf
  Hf14     1.0000 0.63008  0.73128  0.37899  Biso   1.000  Hf
  Hf15     1.0000 0.63250  0.73017  0.87486  Biso   1.000  Hf
  Hf16     1.0000 0.36376  0.26507  0.12641  Biso   1.000  Hf
  Hf17     1.0000 0.36370  0.26407  0.62448  Biso   1.000  Hf
  Hf18     1.0000 0.36954  0.76248  0.12439  Biso   1.000  Hf
  Hf19     1.0000 0.36327  0.76540  0.62504  Biso   1.000  Hf
  Hf20     1.0000 0.86187  0.26804  0.12675  Biso   1.000  Hf
  Hf21     1.0000 0.86371  0.26647  0.62441  Biso   1.000  Hf
  Hf22     1.0000 0.85990  0.76369  0.12914  Biso   1.000  Hf
  Hf23     1.0000 0.86394  0.76346  0.62533  Biso   1.000  Hf
  Hf24     1.0000 0.36307  0.48190  0.37519  Biso   1.000  Hf
  Hf25     1.0000 0.36304  0.48058  0.87592  Biso   1.000  Hf
  Hf26     1.0000 0.36396  0.98312  0.37453  Biso   1.000  Hf
  Hf27     1.0000 0.36602  0.98257  0.87267  Biso   1.000  Hf
  Hf28     1.0000 0.86371  0.48304  0.37704  Biso   1.000  Hf
  Hf29     1.0000 0.86301  0.48097  0.87653  Biso   1.000  Hf
  Hf30     1.0000 0.85924  0.98198  0.38185  Biso   1.000  Hf
  Hf31     1.0000 0.85998  0.98046  0.87223  Biso   1.000  Hf
  Hf32     1.0000 0.02752  0.19671  0.20345  Biso   1.000  Hf
  Hf33     1.0000 0.03756  0.18815  0.68244  Biso   1.000  Hf
  Hf34     1.0000 0.03538  0.68633  0.19500  Biso   1.000  Hf
  Hf35     1.0000 0.03326  0.68252  0.69570  Biso   1.000  Hf
  Hf36     1.0000 0.53731  0.18448  0.19108  Biso   1.000  Hf
  Hf37     1.0000 0.53276  0.18228  0.69538  Biso   1.000  Hf
  Hf38     1.0000 0.53499  0.68015  0.19770  Biso   1.000  Hf
  Hf39     1.0000 0.53286  0.68163  0.69496  Biso   1.000  Hf
  Hf40     1.0000 0.03309  0.06366  0.44091  Biso   1.000  Hf
  Hf41     1.0000 0.02907  0.07123  0.91431  Biso   1.000  Hf
  Hf42     1.0000 0.03337  0.56487  0.44624  Biso   1.000  Hf
  Hf43     1.0000 0.03118  0.56684  0.94460  Biso   1.000  Hf
  Hf44     1.0000 0.53387  0.06489  0.44499  Biso   1.000  Hf
  Hf45     1.0000 0.53601  0.06341  0.94203  Biso   1.000  Hf
  Hf46     1.0000 0.53216  0.56372  0.44643  Biso   1.000  Hf
  Hf47     1.0000 0.53106  0.56470  0.94651  Biso   1.000  Hf
  Hf48     1.0000 0.46348  0.43216  0.19590  Biso   1.000  Hf
  Hf49     1.0000 0.46248  0.43139  0.69534  Biso   1.000  Hf
  Hf50     1.0000 0.46223  0.93533  0.19196  Biso   1.000  Hf
  Hf51     1.0000 0.46240  0.93188  0.69416  Biso   1.000  Hf
  Hf52     1.0000 0.96012  0.43901  0.19428  Biso   1.000  Hf
  Hf53     1.0000 0.96269  0.43313  0.69712  Biso   1.000  Hf
  Hf54     1.0000 0.93779  0.92821  0.20591  Biso   1.000  Hf
  Hf55     1.0000 0.95854  0.93218  0.69077  Biso   1.000  Hf
  Hf56     1.0000 0.46130  0.31395  0.44433  Biso   1.000  Hf
  Hf57     1.0000 0.46311  0.31553  0.94481  Biso   1.000  Hf
  Hf58     1.0000 0.46325  0.81575  0.44756  Biso   1.000  Hf
  Hf59     1.0000 0.46933  0.81579  0.94595  Biso   1.000  Hf
  Hf60     1.0000 0.96156  0.31790  0.44585  Biso   1.000  Hf
  Hf61     1.0000 0.96196  0.31637  0.94721  Biso   1.000  Hf
  Hf62     1.0000 0.96172  0.81353  0.44686  Biso   1.000  Hf
  Hf63     1.0000 0.96952  0.82208  0.95533  Biso   1.000  Hf
  Hf64     1.0000 0.27845  0.12647  0.25573  Biso   1.000  Hf
  Hf65     1.0000 0.26873  0.11596  0.74642  Biso   1.000  Hf
  Hf66     1.0000 0.26806  0.61255  0.24885  Biso   1.000  Hf
  Hf67     1.0000 0.26807  0.61584  0.74943  Biso   1.000  Hf
  Hf68     1.0000 0.76617  0.11667  0.25195  Biso   1.000  Hf
  Hf69     1.0000 0.76763  0.11653  0.74866  Biso   1.000  Hf
  Hf70     1.0000 0.76798  0.61649  0.25041  Biso   1.000  Hf
  Hf71     1.0000 0.76810  0.61458  0.74912  Biso   1.000  Hf
  Hf72     1.0000 0.26726  0.12987  0.50086  Biso   1.000  Hf
  Hf73     1.0000 0.27242  0.13552  0.99036  Biso   1.000  Hf
  Hf74     1.0000 0.26808  0.63137  0.49960  Biso   1.000  Hf
  Hf75     1.0000 0.26716  0.62686  0.99954  Biso   1.000  Hf
  Hf76     1.0000 0.76574  0.13289  0.50090  Biso   1.000  Hf
  Hf77     1.0000 0.76900  0.12931  0.99997  Biso   1.000  Hf
  Hf78     1.0000 0.76745  0.63026  0.49997  Biso   1.000  Hf
  Hf79     1.0000 0.76605  0.62844  0.99896  Biso   1.000  Hf
  Hf80     1.0000 0.22797  0.38196  0.49943  Biso   1.000  Hf
  Hf81     1.0000 0.22615  0.38099  0.99875  Biso   1.000  Hf
  Hf82     1.0000 0.22679  0.88216  0.49919  Biso   1.000  Hf
  Hf83     1.0000 0.24084  0.86905  0.98900  Biso   1.000  Hf
  Hf84     1.0000 0.72663  0.38159  0.49954  Biso   1.000  Hf
  Hf85     1.0000 0.72488  0.38046  0.99921  Biso   1.000  Hf
  Hf86     1.0000 0.72580  0.87962  0.50281  Biso   1.000  Hf
  Hf87     1.0000 0.73229  0.88006  0.00068  Biso   1.000  Hf
  Hf88     1.0000 0.22594  0.36835  0.24904  Biso   1.000  Hf
  Hf89     1.0000 0.22876  0.36726  0.74742  Biso   1.000  Hf
  Hf90     1.0000 0.24212  0.85397  0.25608  Biso   1.000  Hf
  Hf91     1.0000 0.22619  0.86628  0.74624  Biso   1.000  Hf
  Hf92     1.0000 0.72748  0.36790  0.25044  Biso   1.000  Hf
  Hf93     1.0000 0.72766  0.36567  0.74983  Biso   1.000  Hf
  Hf94     1.0000 0.71577  0.86512  0.25221  Biso   1.000  Hf
  Hf95     1.0000 0.72719  0.86471  0.75011  Biso   1.000  Hf
