data_image0
_cell_length_a       10.0012
_cell_length_b       10.3917
_cell_length_c       10.0535
_cell_angle_alpha    90
_cell_angle_beta     90
_cell_angle_gamma    90

_symmetry_space_group_name_H-M    "P 1"
_symmetry_int_tables_number       1

loop_
  _symmetry_equiv_pos_as_xyz
  'x, y, z'

loop_
  _atom_site_label
  _atom_site_occupancy
  _atom_site_fract_x
  _atom_site_fract_y
  _atom_site_fract_z
  _atom_site_thermal_displace_type
  _atom_site_B_iso_or_equiv
  _atom_site_type_symbol
  La1      1.0000 0.12541  0.00700  0.12560  Biso   1.000  La
  Hf1      1.0000 0.12911  0.01361  0.62424  Biso   1.000  Hf
  Hf2      1.0000 0.13019  0.51610  0.12518  Biso   1.000  Hf
  Hf3      1.0000 0.12816  0.51248  0.62351  Biso   1.000  Hf
  Hf4      1.0000 0.63264  0.01503  0.12389  Biso   1.000  Hf
  Hf5      1.0000 0.62696  0.01488  0.62355  Biso   1.000  Hf
  Hf6      1.0000 0.62984  0.51377  0.12620  Biso   1.000  Hf
  Hf7      1.0000 0.62885  0.51314  0.62763  Biso   1.000  Hf
  Hf8      1.0000 0.13100  0.23322  0.37717  Biso   1.000  Hf
  Hf9      1.0000 0.12869  0.22998  0.87079  Biso   1.000  Hf
  Hf10     1.0000 0.13008  0.73137  0.37676  Biso   1.000  Hf
  Hf11     1.0000 0.14167  0.72245  0.86901  Biso   1.000  Hf
  Hf12     1.0000 0.62927  0.23183  0.37357  Biso   1.000  Hf
  Hf13     1.0000 0.62669  0.23197  0.87557  Biso   1.000  Hf
  Hf14     1.0000 0.62738  0.72985  0.38232  Biso   1.000  Hf
  Hf15     1.0000 0.63054  0.72921  0.87589  Biso   1.000  Hf
  Hf16     1.0000 0.36219  0.26501  0.12728  Biso   1.000  Hf
  Hf17     1.0000 0.36156  0.26267  0.62409  Biso   1.000  Hf
  Hf18     1.0000 0.36887  0.76247  0.12475  Biso   1.000  Hf
  Hf19     1.0000 0.36312  0.76485  0.62248  Biso   1.000  Hf
  Hf20     1.0000 0.86260  0.26881  0.12720  Biso   1.000  Hf
  Hf21     1.0000 0.86180  0.26667  0.62380  Biso   1.000  Hf
  Hf22     1.0000 0.85175  0.76060  0.14079  Biso   1.000  Hf
  Hf23     1.0000 0.86207  0.76338  0.62741  Biso   1.000  Hf
  Hf24     1.0000 0.36102  0.48151  0.37487  Biso   1.000  Hf
  Hf25     1.0000 0.36218  0.47543  0.87707  Biso   1.000  Hf
  Hf26     1.0000 0.36173  0.98306  0.37431  Biso   1.000  Hf
  Hf27     1.0000 0.36136  0.97954  0.87374  Biso   1.000  Hf
  Hf28     1.0000 0.86210  0.48151  0.37784  Biso   1.000  Hf
  Hf29     1.0000 0.85997  0.47963  0.87792  Biso   1.000  Hf
  Hf30     1.0000 0.85759  0.98144  0.37959  Biso   1.000  Hf
  Hf31     1.0000 0.85163  0.98779  0.86715  Biso   1.000  Hf
  Hf32     1.0000 0.02561  0.19602  0.20503  Biso   1.000  Hf
  Hf33     1.0000 0.03314  0.18482  0.68517  Biso   1.000  Hf
  Hf34     1.0000 0.03331  0.68851  0.19304  Biso   1.000  Hf
  Hf35     1.0000 0.03321  0.68117  0.69300  Biso   1.000  Hf
  Hf36     1.0000 0.53654  0.18329  0.18963  Biso   1.000  Hf
  Hf37     1.0000 0.53034  0.18161  0.69455  Biso   1.000  Hf
  Hf38     1.0000 0.53224  0.67884  0.19933  Biso   1.000  Hf
  Hf39     1.0000 0.53117  0.68111  0.69580  Biso   1.000  Hf
  Hf40     1.0000 0.03207  0.06275  0.44042  Biso   1.000  Hf
  Hf41     1.0000 0.02634  0.06219  0.91761  Biso   1.000  Hf
  Hf42     1.0000 0.03200  0.56367  0.44484  Biso   1.000  Hf
  Hf43     1.0000 0.02521  0.57481  0.94520  Biso   1.000  Hf
  Hf44     1.0000 0.53257  0.06419  0.44411  Biso   1.000  Hf
  Hf45     1.0000 0.53511  0.06018  0.93926  Biso   1.000  Hf
  Hf46     1.0000 0.52907  0.56349  0.44881  Biso   1.000  Hf
  Hf47     1.0000 0.53014  0.56269  0.94524  Biso   1.000  Hf
  Hf48     1.0000 0.46192  0.43153  0.19599  Biso   1.000  Hf
  Hf49     1.0000 0.46032  0.42969  0.69620  Biso   1.000  Hf
  Hf50     1.0000 0.45877  0.93646  0.18961  Biso   1.000  Hf
  Hf51     1.0000 0.45893  0.93147  0.69421  Biso   1.000  Hf
  Hf52     1.0000 0.95689  0.44133  0.19337  Biso   1.000  Hf
  Hf53     1.0000 0.96027  0.43263  0.69810  Biso   1.000  Hf
  Hf54     1.0000 0.93545  0.92652  0.20256  Biso   1.000  Hf
  Hf55     1.0000 0.95602  0.93125  0.69246  Biso   1.000  Hf
  Hf56     1.0000 0.45924  0.31306  0.44353  Biso   1.000  Hf
  Hf57     1.0000 0.45964  0.31301  0.94644  Biso   1.000  Hf
  Hf58     1.0000 0.46121  0.81637  0.44780  Biso   1.000  Hf
  Hf59     1.0000 0.46803  0.81516  0.94872  Biso   1.000  Hf
  Hf60     1.0000 0.96064  0.31788  0.44757  Biso   1.000  Hf
  Hf61     1.0000 0.96038  0.31542  0.94705  Biso   1.000  Hf
  Hf62     1.0000 0.95842  0.81226  0.44582  Biso   1.000  Hf
  Hf63     1.0000 0.27853  0.12764  0.25734  Biso   1.000  Hf
  Hf64     1.0000 0.26563  0.11303  0.74680  Biso   1.000  Hf
  Hf65     1.0000 0.26466  0.61203  0.24836  Biso   1.000  Hf
  Hf66     1.0000 0.26673  0.61270  0.74893  Biso   1.000  Hf
  Hf67     1.0000 0.76456  0.11565  0.25035  Biso   1.000  Hf
  Hf68     1.0000 0.76368  0.11749  0.74658  Biso   1.000  Hf
  Hf69     1.0000 0.76327  0.61539  0.25476  Biso   1.000  Hf
  Hf70     1.0000 0.76626  0.61434  0.75151  Biso   1.000  Hf
  Hf71     1.0000 0.26506  0.12899  0.50134  Biso   1.000  Hf
  Hf72     1.0000 0.27017  0.13184  0.99095  Biso   1.000  Hf
  Hf73     1.0000 0.26584  0.63062  0.49939  Biso   1.000  Hf
  Hf74     1.0000 0.26805  0.62125  0.99862  Biso   1.000  Hf
  Hf75     1.0000 0.76459  0.13239  0.49975  Biso   1.000  Hf
  Hf76     1.0000 0.76431  0.13074  0.99828  Biso   1.000  Hf
  Hf77     1.0000 0.76585  0.62892  0.50256  Biso   1.000  Hf
  Hf78     1.0000 0.77076  0.63265  0.00233  Biso   1.000  Hf
  Hf79     1.0000 0.22674  0.38103  0.49928  Biso   1.000  Hf
  Hf80     1.0000 0.22124  0.37807  0.99875  Biso   1.000  Hf
  Hf81     1.0000 0.22446  0.88147  0.49838  Biso   1.000  Hf
  Hf82     1.0000 0.23086  0.86272  0.98738  Biso   1.000  Hf
  Hf83     1.0000 0.72423  0.38090  0.49988  Biso   1.000  Hf
  Hf84     1.0000 0.72181  0.37996  0.99917  Biso   1.000  Hf
  Hf85     1.0000 0.72448  0.87897  0.50312  Biso   1.000  Hf
  Hf86     1.0000 0.74658  0.88015  0.00068  Biso   1.000  Hf
  Hf87     1.0000 0.22377  0.36847  0.24897  Biso   1.000  Hf
  Hf88     1.0000 0.22579  0.36392  0.74809  Biso   1.000  Hf
  Hf89     1.0000 0.24180  0.85302  0.25705  Biso   1.000  Hf
  Hf90     1.0000 0.22561  0.86373  0.74421  Biso   1.000  Hf
  Hf91     1.0000 0.72637  0.36706  0.25060  Biso   1.000  Hf
  Hf92     1.0000 0.72561  0.36520  0.75034  Biso   1.000  Hf
  Hf93     1.0000 0.70958  0.86430  0.25392  Biso   1.000  Hf
  Hf94     1.0000 0.72215  0.86564  0.75019  Biso   1.000  Hf
