data_image0
_cell_length_a       9.99614
_cell_length_b       10.3901
_cell_length_c       10.0271
_cell_angle_alpha    90
_cell_angle_beta     90
_cell_angle_gamma    90

_symmetry_space_group_name_H-M    "P 1"
_symmetry_int_tables_number       1

loop_
  _symmetry_equiv_pos_as_xyz
  'x, y, z'

loop_
  _atom_site_label
  _atom_site_occupancy
  _atom_site_fract_x
  _atom_site_fract_y
  _atom_site_fract_z
  _atom_site_thermal_displace_type
  _atom_site_B_iso_or_equiv
  _atom_site_type_symbol
  La1      1.0000 0.12864  0.00104  0.11427  Biso   1.000  La
  Hf1      1.0000 0.13263  0.01536  0.62747  Biso   1.000  Hf
  Hf2      1.0000 0.13437  0.51710  0.12584  Biso   1.000  Hf
  Hf3      1.0000 0.13672  0.51093  0.62297  Biso   1.000  Hf
  Hf4      1.0000 0.63618  0.01552  0.12829  Biso   1.000  Hf
  Hf5      1.0000 0.63512  0.01638  0.62521  Biso   1.000  Hf
  Hf6      1.0000 0.63721  0.51344  0.12802  Biso   1.000  Hf
  Hf7      1.0000 0.63590  0.51303  0.62616  Biso   1.000  Hf
  Hf8      1.0000 0.13657  0.22977  0.37424  Biso   1.000  Hf
  Hf9      1.0000 0.13688  0.23417  0.86982  Biso   1.000  Hf
  Hf10     1.0000 0.13747  0.73040  0.37694  Biso   1.000  Hf
  Hf11     1.0000 0.13138  0.72403  0.86881  Biso   1.000  Hf
  Hf12     1.0000 0.63492  0.23206  0.37398  Biso   1.000  Hf
  Hf13     1.0000 0.63902  0.23120  0.87709  Biso   1.000  Hf
  Hf14     1.0000 0.63587  0.73098  0.38154  Biso   1.000  Hf
  Hf15     1.0000 0.63588  0.73053  0.87728  Biso   1.000  Hf
  Hf16     1.0000 0.36651  0.26540  0.12538  Biso   1.000  Hf
  Hf17     1.0000 0.36822  0.26258  0.62312  Biso   1.000  Hf
  Hf18     1.0000 0.37962  0.75898  0.12673  Biso   1.000  Hf
  Hf19     1.0000 0.36781  0.76428  0.62763  Biso   1.000  Hf
  Hf20     1.0000 0.86821  0.26663  0.12722  Biso   1.000  Hf
  Hf21     1.0000 0.86849  0.26549  0.62314  Biso   1.000  Hf
  Hf22     1.0000 0.86376  0.76434  0.13178  Biso   1.000  Hf
  Hf23     1.0000 0.86712  0.76335  0.62533  Biso   1.000  Hf
  Hf24     1.0000 0.36794  0.48074  0.37494  Biso   1.000  Hf
  Hf25     1.0000 0.37085  0.48065  0.87439  Biso   1.000  Hf
  Hf26     1.0000 0.37023  0.98161  0.37509  Biso   1.000  Hf
  Hf27     1.0000 0.38186  0.98949  0.86834  Biso   1.000  Hf
  Hf28     1.0000 0.86929  0.48152  0.37623  Biso   1.000  Hf
  Hf29     1.0000 0.86737  0.47913  0.87611  Biso   1.000  Hf
  Hf30     1.0000 0.86774  0.98081  0.38059  Biso   1.000  Hf
  Hf31     1.0000 0.86851  0.98015  0.87315  Biso   1.000  Hf
  Hf32     1.0000 0.03239  0.18903  0.19986  Biso   1.000  Hf
  Hf33     1.0000 0.04206  0.18823  0.68249  Biso   1.000  Hf
  Hf34     1.0000 0.03844  0.68532  0.19672  Biso   1.000  Hf
  Hf35     1.0000 0.03730  0.67937  0.69287  Biso   1.000  Hf
  Hf36     1.0000 0.53997  0.18441  0.19031  Biso   1.000  Hf
  Hf37     1.0000 0.53638  0.18039  0.69756  Biso   1.000  Hf
  Hf38     1.0000 0.54093  0.67982  0.20065  Biso   1.000  Hf
  Hf39     1.0000 0.53681  0.68053  0.69756  Biso   1.000  Hf
  Hf40     1.0000 0.03606  0.06230  0.44398  Biso   1.000  Hf
  Hf41     1.0000 0.03739  0.06825  0.91149  Biso   1.000  Hf
  Hf42     1.0000 0.03984  0.56256  0.44392  Biso   1.000  Hf
  Hf43     1.0000 0.03528  0.56338  0.94434  Biso   1.000  Hf
  Hf44     1.0000 0.53707  0.06361  0.44349  Biso   1.000  Hf
  Hf45     1.0000 0.54677  0.06164  0.94225  Biso   1.000  Hf
  Hf46     1.0000 0.53726  0.56268  0.44700  Biso   1.000  Hf
  Hf47     1.0000 0.53355  0.56805  0.95236  Biso   1.000  Hf
  Hf48     1.0000 0.46768  0.43145  0.19617  Biso   1.000  Hf
  Hf49     1.0000 0.46753  0.43035  0.69547  Biso   1.000  Hf
  Hf50     1.0000 0.46751  0.93387  0.19040  Biso   1.000  Hf
  Hf51     1.0000 0.46896  0.93156  0.68991  Biso   1.000  Hf
  Hf52     1.0000 0.96353  0.43750  0.19323  Biso   1.000  Hf
  Hf53     1.0000 0.96624  0.43275  0.69548  Biso   1.000  Hf
  Hf54     1.0000 0.94669  0.92812  0.20529  Biso   1.000  Hf
  Hf55     1.0000 0.96630  0.92875  0.69274  Biso   1.000  Hf
  Hf56     1.0000 0.46572  0.31290  0.44434  Biso   1.000  Hf
  Hf57     1.0000 0.47019  0.31539  0.94329  Biso   1.000  Hf
  Hf58     1.0000 0.46732  0.81372  0.44796  Biso   1.000  Hf
  Hf59     1.0000 0.46261  0.81633  0.94322  Biso   1.000  Hf
  Hf60     1.0000 0.96567  0.31541  0.44357  Biso   1.000  Hf
  Hf61     1.0000 0.96797  0.31430  0.94591  Biso   1.000  Hf
  Hf62     1.0000 0.96678  0.81161  0.44718  Biso   1.000  Hf
  Hf63     1.0000 0.98382  0.82458  0.96018  Biso   1.000  Hf
  Hf64     1.0000 0.28145  0.12322  0.25306  Biso   1.000  Hf
  Hf65     1.0000 0.27278  0.11604  0.74402  Biso   1.000  Hf
  Hf66     1.0000 0.27338  0.61080  0.24808  Biso   1.000  Hf
  Hf67     1.0000 0.27184  0.61243  0.74788  Biso   1.000  Hf
  Hf68     1.0000 0.76970  0.11628  0.25245  Biso   1.000  Hf
  Hf69     1.0000 0.77356  0.11606  0.74875  Biso   1.000  Hf
  Hf70     1.0000 0.77211  0.61607  0.25192  Biso   1.000  Hf
  Hf71     1.0000 0.77090  0.61536  0.75157  Biso   1.000  Hf
  Hf72     1.0000 0.27086  0.12784  0.49951  Biso   1.000  Hf
  Hf73     1.0000 0.27959  0.13475  0.98841  Biso   1.000  Hf
  Hf74     1.0000 0.27346  0.63016  0.49987  Biso   1.000  Hf
  Hf75     1.0000 0.26715  0.64008  0.99885  Biso   1.000  Hf
  Hf76     1.0000 0.76864  0.13192  0.50095  Biso   1.000  Hf
  Hf77     1.0000 0.77635  0.13125  0.00076  Biso   1.000  Hf
  Hf78     1.0000 0.77291  0.62883  0.50162  Biso   1.000  Hf
  Hf79     1.0000 0.77210  0.62811  0.99986  Biso   1.000  Hf
  Hf80     1.0000 0.23249  0.37925  0.49781  Biso   1.000  Hf
  Hf81     1.0000 0.23498  0.38430  0.99770  Biso   1.000  Hf
  Hf82     1.0000 0.23188  0.88004  0.50369  Biso   1.000  Hf
  Hf83     1.0000 0.73131  0.38077  0.49929  Biso   1.000  Hf
  Hf84     1.0000 0.73178  0.37892  0.99945  Biso   1.000  Hf
  Hf85     1.0000 0.73243  0.87888  0.50350  Biso   1.000  Hf
  Hf86     1.0000 0.73434  0.87900  0.00122  Biso   1.000  Hf
  Hf87     1.0000 0.22920  0.36694  0.24770  Biso   1.000  Hf
  Hf88     1.0000 0.23398  0.36558  0.74639  Biso   1.000  Hf
  Hf89     1.0000 0.24729  0.85216  0.25335  Biso   1.000  Hf
  Hf90     1.0000 0.23524  0.86627  0.76187  Biso   1.000  Hf
  Hf91     1.0000 0.73193  0.36682  0.25033  Biso   1.000  Hf
  Hf92     1.0000 0.73220  0.36488  0.74941  Biso   1.000  Hf
  Hf93     1.0000 0.72150  0.86446  0.25395  Biso   1.000  Hf
  Hf94     1.0000 0.73248  0.86513  0.75178  Biso   1.000  Hf
