data_image0
_cell_length_a       10.1642
_cell_length_b       10.31
_cell_length_c       10.4609
_cell_angle_alpha    90
_cell_angle_beta     80
_cell_angle_gamma    90

_symmetry_space_group_name_H-M    "P 1"
_symmetry_int_tables_number       1

loop_
  _symmetry_equiv_pos_as_xyz
  'x, y, z'

loop_
  _atom_site_label
  _atom_site_occupancy
  _atom_site_fract_x
  _atom_site_fract_y
  _atom_site_fract_z
  _atom_site_thermal_displace_type
  _atom_site_B_iso_or_equiv
  _atom_site_type_symbol
  La1      1.0000 0.13148  0.01175  0.14078  Biso   1.000  La
  Hf1      1.0000 0.13380  0.02109  0.64706  Biso   1.000  Hf
  Hf2      1.0000 0.13615  0.52060  0.14455  Biso   1.000  Hf
  Hf3      1.0000 0.13208  0.52096  0.64657  Biso   1.000  Hf
  Hf4      1.0000 0.63906  0.02036  0.14670  Biso   1.000  Hf
  Hf5      1.0000 0.63399  0.02209  0.64808  Biso   1.000  Hf
  Hf6      1.0000 0.63552  0.51837  0.14673  Biso   1.000  Hf
  Hf7      1.0000 0.63194  0.52064  0.64627  Biso   1.000  Hf
  Hf8      1.0000 0.13427  0.22762  0.39772  Biso   1.000  Hf
  Hf9      1.0000 0.12959  0.23222  0.89534  Biso   1.000  Hf
  Hf10     1.0000 0.13418  0.72649  0.39672  Biso   1.000  Hf
  Hf11     1.0000 0.13116  0.72774  0.89548  Biso   1.000  Hf
  Hf12     1.0000 0.63338  0.22978  0.39700  Biso   1.000  Hf
  Hf13     1.0000 0.63156  0.22863  0.89800  Biso   1.000  Hf
  Hf14     1.0000 0.63059  0.72652  0.39754  Biso   1.000  Hf
  Hf15     1.0000 0.63241  0.72850  0.89522  Biso   1.000  Hf
  Hf16     1.0000 0.35863  0.26892  0.10409  Biso   1.000  Hf
  Hf17     1.0000 0.35444  0.27040  0.60460  Biso   1.000  Hf
  Hf18     1.0000 0.36412  0.76716  0.10312  Biso   1.000  Hf
  Hf19     1.0000 0.35278  0.77137  0.60469  Biso   1.000  Hf
  Hf20     1.0000 0.85816  0.27339  0.10331  Biso   1.000  Hf
  Hf21     1.0000 0.85530  0.27190  0.60541  Biso   1.000  Hf
  Hf22     1.0000 0.85414  0.76607  0.10400  Biso   1.000  Hf
  Hf23     1.0000 0.85503  0.77142  0.60441  Biso   1.000  Hf
  Hf24     1.0000 0.35434  0.47702  0.35332  Biso   1.000  Hf
  Hf25     1.0000 0.35361  0.47776  0.85528  Biso   1.000  Hf
  Hf26     1.0000 0.35631  0.97906  0.35523  Biso   1.000  Hf
  Hf27     1.0000 0.35411  0.97830  0.85281  Biso   1.000  Hf
  Hf28     1.0000 0.85684  0.47894  0.35489  Biso   1.000  Hf
  Hf29     1.0000 0.85211  0.47899  0.85374  Biso   1.000  Hf
  Hf30     1.0000 0.84782  0.97889  0.36063  Biso   1.000  Hf
  Hf31     1.0000 0.85258  0.97836  0.85667  Biso   1.000  Hf
  Hf32     1.0000 0.03571  0.19229  0.07821  Biso   1.000  Hf
  Hf33     1.0000 0.03129  0.17349  0.58713  Biso   1.000  Hf
  Hf34     1.0000 0.03655  0.67624  0.08315  Biso   1.000  Hf
  Hf35     1.0000 0.02955  0.67021  0.58254  Biso   1.000  Hf
  Hf36     1.0000 0.53525  0.16811  0.07977  Biso   1.000  Hf
  Hf37     1.0000 0.52817  0.16753  0.58117  Biso   1.000  Hf
  Hf38     1.0000 0.53642  0.66638  0.07832  Biso   1.000  Hf
  Hf39     1.0000 0.52673  0.66658  0.58136  Biso   1.000  Hf
  Hf40     1.0000 0.02212  0.08142  0.34865  Biso   1.000  Hf
  Hf41     1.0000 0.03122  0.07710  0.83600  Biso   1.000  Hf
  Hf42     1.0000 0.03155  0.58014  0.33084  Biso   1.000  Hf
  Hf43     1.0000 0.02773  0.57852  0.83197  Biso   1.000  Hf
  Hf44     1.0000 0.53354  0.08030  0.33148  Biso   1.000  Hf
  Hf45     1.0000 0.53039  0.08194  0.82983  Biso   1.000  Hf
  Hf46     1.0000 0.52832  0.58076  0.32964  Biso   1.000  Hf
  Hf47     1.0000 0.52725  0.58182  0.83016  Biso   1.000  Hf
  Hf48     1.0000 0.46180  0.41620  0.17107  Biso   1.000  Hf
  Hf49     1.0000 0.45854  0.41699  0.67128  Biso   1.000  Hf
  Hf50     1.0000 0.46168  0.91980  0.16879  Biso   1.000  Hf
  Hf51     1.0000 0.45829  0.91705  0.67109  Biso   1.000  Hf
  Hf52     1.0000 0.95646  0.42724  0.16711  Biso   1.000  Hf
  Hf53     1.0000 0.95630  0.42245  0.66782  Biso   1.000  Hf
  Hf54     1.0000 0.92703  0.92393  0.17388  Biso   1.000  Hf
  Hf55     1.0000 0.95612  0.92018  0.67076  Biso   1.000  Hf
  Hf56     1.0000 0.45894  0.33093  0.42081  Biso   1.000  Hf
  Hf57     1.0000 0.45890  0.33340  0.92203  Biso   1.000  Hf
  Hf58     1.0000 0.45817  0.83110  0.42315  Biso   1.000  Hf
  Hf59     1.0000 0.46498  0.83476  0.92087  Biso   1.000  Hf
  Hf60     1.0000 0.95902  0.33182  0.42066  Biso   1.000  Hf
  Hf61     1.0000 0.95128  0.32962  0.91389  Biso   1.000  Hf
  Hf62     1.0000 0.95828  0.82989  0.41865  Biso   1.000  Hf
  Hf63     1.0000 0.95619  0.83045  0.92219  Biso   1.000  Hf
  Hf64     1.0000 0.28034  0.13482  0.24923  Biso   1.000  Hf
  Hf65     1.0000 0.26960  0.12886  0.73936  Biso   1.000  Hf
  Hf66     1.0000 0.27340  0.62348  0.23880  Biso   1.000  Hf
  Hf67     1.0000 0.26862  0.62877  0.74105  Biso   1.000  Hf
  Hf68     1.0000 0.77177  0.13197  0.24328  Biso   1.000  Hf
  Hf69     1.0000 0.77134  0.12921  0.74273  Biso   1.000  Hf
  Hf70     1.0000 0.77003  0.62825  0.24181  Biso   1.000  Hf
  Hf71     1.0000 0.76867  0.62923  0.73988  Biso   1.000  Hf
  Hf72     1.0000 0.27039  0.11993  0.49343  Biso   1.000  Hf
  Hf73     1.0000 0.27633  0.12738  0.98079  Biso   1.000  Hf
  Hf74     1.0000 0.26981  0.62010  0.49087  Biso   1.000  Hf
  Hf75     1.0000 0.26658  0.61734  0.99125  Biso   1.000  Hf
  Hf76     1.0000 0.76770  0.12251  0.49460  Biso   1.000  Hf
  Hf77     1.0000 0.76780  0.12016  0.99288  Biso   1.000  Hf
  Hf78     1.0000 0.76963  0.62088  0.49117  Biso   1.000  Hf
  Hf79     1.0000 0.76651  0.61883  0.99101  Biso   1.000  Hf
  Hf80     1.0000 0.22452  0.38002  0.00753  Biso   1.000  Hf
  Hf81     1.0000 0.21789  0.37892  0.50974  Biso   1.000  Hf
  Hf82     1.0000 0.23031  0.86485  0.99631  Biso   1.000  Hf
  Hf83     1.0000 0.21663  0.87914  0.51100  Biso   1.000  Hf
  Hf84     1.0000 0.72155  0.37971  0.00876  Biso   1.000  Hf
  Hf85     1.0000 0.71774  0.37920  0.51029  Biso   1.000  Hf
  Hf86     1.0000 0.72284  0.87780  0.00883  Biso   1.000  Hf
  Hf87     1.0000 0.71629  0.87836  0.51252  Biso   1.000  Hf
  Hf88     1.0000 0.21708  0.37102  0.25838  Biso   1.000  Hf
  Hf89     1.0000 0.21680  0.37213  0.75902  Biso   1.000  Hf
  Hf90     1.0000 0.23211  0.85845  0.26430  Biso   1.000  Hf
  Hf91     1.0000 0.21518  0.87088  0.75756  Biso   1.000  Hf
  Hf92     1.0000 0.71909  0.37213  0.26100  Biso   1.000  Hf
  Hf93     1.0000 0.71623  0.37067  0.75962  Biso   1.000  Hf
  Hf94     1.0000 0.70549  0.86865  0.26458  Biso   1.000  Hf
  Hf95     1.0000 0.71775  0.87092  0.76007  Biso   1.000  Hf
