data_image0
_cell_length_a       10.0711
_cell_length_b       10.2805
_cell_length_c       10.4647
_cell_angle_alpha    90
_cell_angle_beta     90
_cell_angle_gamma    90

_symmetry_space_group_name_H-M    "P 1"
_symmetry_int_tables_number       1

loop_
  _symmetry_equiv_pos_as_xyz
  'x, y, z'

loop_
  _atom_site_label
  _atom_site_occupancy
  _atom_site_fract_x
  _atom_site_fract_y
  _atom_site_fract_z
  _atom_site_thermal_displace_type
  _atom_site_B_iso_or_equiv
  _atom_site_type_symbol
  La1      1.0000 0.13585  0.01490  0.16410  Biso   1.000  La
  Hf1      1.0000 0.13400  0.01834  0.67048  Biso   1.000  Hf
  Hf2      1.0000 0.13416  0.51965  0.16992  Biso   1.000  Hf
  Hf3      1.0000 0.13107  0.51877  0.67037  Biso   1.000  Hf
  Hf4      1.0000 0.12717  0.23122  0.42696  Biso   1.000  Hf
  Hf5      1.0000 0.13120  0.23020  0.91755  Biso   1.000  Hf
  Hf6      1.0000 0.13376  0.72512  0.42194  Biso   1.000  Hf
  Hf7      1.0000 0.13135  0.72488  0.92100  Biso   1.000  Hf
  Hf8      1.0000 0.36397  0.27731  0.16355  Biso   1.000  Hf
  Hf9      1.0000 0.35618  0.26748  0.66971  Biso   1.000  Hf
  Hf10     1.0000 0.36319  0.76589  0.17114  Biso   1.000  Hf
  Hf11     1.0000 0.35273  0.76620  0.67367  Biso   1.000  Hf
  Hf12     1.0000 0.35656  0.47521  0.42062  Biso   1.000  Hf
  Hf13     1.0000 0.35346  0.47710  0.91846  Biso   1.000  Hf
  Hf14     1.0000 0.36169  0.96714  0.42958  Biso   1.000  Hf
  Hf15     1.0000 0.35585  0.97602  0.91925  Biso   1.000  Hf
  Hf16     1.0000 0.63952  0.01957  0.08109  Biso   1.000  Hf
  Hf17     1.0000 0.63712  0.01935  0.58114  Biso   1.000  Hf
  Hf18     1.0000 0.63918  0.52069  0.07669  Biso   1.000  Hf
  Hf19     1.0000 0.63207  0.51865  0.57743  Biso   1.000  Hf
  Hf20     1.0000 0.63439  0.22743  0.32918  Biso   1.000  Hf
  Hf21     1.0000 0.63201  0.22541  0.82913  Biso   1.000  Hf
  Hf22     1.0000 0.63631  0.72620  0.32933  Biso   1.000  Hf
  Hf23     1.0000 0.63084  0.72591  0.82720  Biso   1.000  Hf
  Hf24     1.0000 0.85828  0.27287  0.07627  Biso   1.000  Hf
  Hf25     1.0000 0.85392  0.27020  0.58127  Biso   1.000  Hf
  Hf26     1.0000 0.85504  0.76874  0.07894  Biso   1.000  Hf
  Hf27     1.0000 0.85626  0.76906  0.57944  Biso   1.000  Hf
  Hf28     1.0000 0.85606  0.47819  0.32855  Biso   1.000  Hf
  Hf29     1.0000 0.85359  0.47724  0.82651  Biso   1.000  Hf
  Hf30     1.0000 0.85240  0.97797  0.33342  Biso   1.000  Hf
  Hf31     1.0000 0.85408  0.97611  0.83146  Biso   1.000  Hf
  Hf32     1.0000 0.03286  0.18794  0.08009  Biso   1.000  Hf
  Hf33     1.0000 0.03004  0.17240  0.59585  Biso   1.000  Hf
  Hf34     1.0000 0.03326  0.67102  0.08765  Biso   1.000  Hf
  Hf35     1.0000 0.02907  0.66746  0.58691  Biso   1.000  Hf
  Hf36     1.0000 0.02728  0.08262  0.35147  Biso   1.000  Hf
  Hf37     1.0000 0.03210  0.07569  0.83980  Biso   1.000  Hf
  Hf38     1.0000 0.03112  0.57839  0.33694  Biso   1.000  Hf
  Hf39     1.0000 0.02681  0.57850  0.83485  Biso   1.000  Hf
  Hf40     1.0000 0.46701  0.41570  0.07945  Biso   1.000  Hf
  Hf41     1.0000 0.46198  0.41139  0.58204  Biso   1.000  Hf
  Hf42     1.0000 0.46486  0.91689  0.08595  Biso   1.000  Hf
  Hf43     1.0000 0.46336  0.90964  0.58639  Biso   1.000  Hf
  Hf44     1.0000 0.46194  0.33233  0.33117  Biso   1.000  Hf
  Hf45     1.0000 0.45991  0.33061  0.83216  Biso   1.000  Hf
  Hf46     1.0000 0.46747  0.82907  0.33555  Biso   1.000  Hf
  Hf47     1.0000 0.46055  0.83156  0.83228  Biso   1.000  Hf
  Hf48     1.0000 0.27108  0.12070  0.78887  Biso   1.000  Hf
  Hf49     1.0000 0.27284  0.61616  0.29347  Biso   1.000  Hf
  Hf50     1.0000 0.26874  0.62147  0.79456  Biso   1.000  Hf
  Hf51     1.0000 0.28762  0.13741  0.03448  Biso   1.000  Hf
  Hf52     1.0000 0.27112  0.12318  0.53554  Biso   1.000  Hf
  Hf53     1.0000 0.27357  0.62117  0.04523  Biso   1.000  Hf
  Hf54     1.0000 0.27034  0.62267  0.54441  Biso   1.000  Hf
  Hf55     1.0000 0.21905  0.36079  0.29128  Biso   1.000  Hf
  Hf56     1.0000 0.21820  0.37227  0.79172  Biso   1.000  Hf
  Hf57     1.0000 0.23121  0.86354  0.30378  Biso   1.000  Hf
  Hf58     1.0000 0.21549  0.87106  0.79320  Biso   1.000  Hf
  Hf59     1.0000 0.22198  0.38053  0.04143  Biso   1.000  Hf
  Hf60     1.0000 0.21864  0.37581  0.54481  Biso   1.000  Hf
  Hf61     1.0000 0.23895  0.86219  0.03460  Biso   1.000  Hf
  Hf62     1.0000 0.21841  0.87212  0.54893  Biso   1.000  Hf
  Hf63     1.0000 0.52974  0.16388  0.16708  Biso   1.000  Hf
  Hf64     1.0000 0.52790  0.16196  0.66597  Biso   1.000  Hf
  Hf65     1.0000 0.53189  0.66121  0.16638  Biso   1.000  Hf
  Hf66     1.0000 0.52513  0.66109  0.66664  Biso   1.000  Hf
  Hf67     1.0000 0.52897  0.08176  0.41747  Biso   1.000  Hf
  Hf68     1.0000 0.53159  0.07877  0.91524  Biso   1.000  Hf
  Hf69     1.0000 0.52772  0.58066  0.41602  Biso   1.000  Hf
  Hf70     1.0000 0.52505  0.58219  0.91613  Biso   1.000  Hf
  Hf71     1.0000 0.95851  0.42272  0.16271  Biso   1.000  Hf
  Hf72     1.0000 0.95727  0.42011  0.66098  Biso   1.000  Hf
  Hf73     1.0000 0.93806  0.91787  0.16722  Biso   1.000  Hf
  Hf74     1.0000 0.95778  0.91672  0.66558  Biso   1.000  Hf
  Hf75     1.0000 0.95769  0.33268  0.41718  Biso   1.000  Hf
  Hf76     1.0000 0.95560  0.33025  0.90690  Biso   1.000  Hf
  Hf77     1.0000 0.96119  0.82972  0.41470  Biso   1.000  Hf
  Hf78     1.0000 0.95953  0.83034  0.91804  Biso   1.000  Hf
  Hf79     1.0000 0.77128  0.12005  0.95641  Biso   1.000  Hf
  Hf80     1.0000 0.76979  0.12357  0.45870  Biso   1.000  Hf
  Hf81     1.0000 0.76747  0.61929  0.95337  Biso   1.000  Hf
  Hf82     1.0000 0.77148  0.62177  0.45523  Biso   1.000  Hf
  Hf83     1.0000 0.77356  0.12742  0.20821  Biso   1.000  Hf
  Hf84     1.0000 0.77150  0.12393  0.70765  Biso   1.000  Hf
  Hf85     1.0000 0.77401  0.62548  0.20466  Biso   1.000  Hf
  Hf86     1.0000 0.76876  0.62490  0.70374  Biso   1.000  Hf
  Hf87     1.0000 0.71500  0.37106  0.95342  Biso   1.000  Hf
  Hf88     1.0000 0.71754  0.37253  0.45484  Biso   1.000  Hf
  Hf89     1.0000 0.71560  0.86955  0.95600  Biso   1.000  Hf
  Hf90     1.0000 0.71907  0.87224  0.45815  Biso   1.000  Hf
  Hf91     1.0000 0.71838  0.37615  0.20540  Biso   1.000  Hf
  Hf92     1.0000 0.71670  0.37323  0.70441  Biso   1.000  Hf
  Hf93     1.0000 0.70878  0.87397  0.20833  Biso   1.000  Hf
  Hf94     1.0000 0.71750  0.87382  0.70662  Biso   1.000  Hf
