data_image0
_cell_length_a       10.0093
_cell_length_b       10.4038
_cell_length_c       10.0214
_cell_angle_alpha    90
_cell_angle_beta     90
_cell_angle_gamma    90

_symmetry_space_group_name_H-M    "P 1"
_symmetry_int_tables_number       1

loop_
  _symmetry_equiv_pos_as_xyz
  'x, y, z'

loop_
  _atom_site_label
  _atom_site_occupancy
  _atom_site_fract_x
  _atom_site_fract_y
  _atom_site_fract_z
  _atom_site_thermal_displace_type
  _atom_site_B_iso_or_equiv
  _atom_site_type_symbol
  La1      1.0000 0.12459  0.00441  0.12450  Biso   1.000  La
  Hf1      1.0000 0.12764  0.01201  0.62319  Biso   1.000  Hf
  Hf2      1.0000 0.13065  0.51406  0.12279  Biso   1.000  Hf
  Hf3      1.0000 0.12994  0.51266  0.62596  Biso   1.000  Hf
  Hf4      1.0000 0.63177  0.01418  0.12630  Biso   1.000  Hf
  Hf5      1.0000 0.62988  0.01313  0.62723  Biso   1.000  Hf
  Hf6      1.0000 0.63441  0.51642  0.12502  Biso   1.000  Hf
  Hf7      1.0000 0.62924  0.51225  0.62635  Biso   1.000  Hf
  Hf8      1.0000 0.12419  0.23521  0.38004  Biso   1.000  Hf
  Hf9      1.0000 0.12989  0.23083  0.87040  Biso   1.000  Hf
  Hf10     1.0000 0.13143  0.72803  0.37636  Biso   1.000  Hf
  Hf11     1.0000 0.13063  0.72930  0.87608  Biso   1.000  Hf
  Hf12     1.0000 0.63143  0.23100  0.37661  Biso   1.000  Hf
  Hf13     1.0000 0.63205  0.22797  0.87546  Biso   1.000  Hf
  Hf14     1.0000 0.63132  0.72897  0.37892  Biso   1.000  Hf
  Hf15     1.0000 0.63117  0.72831  0.87525  Biso   1.000  Hf
  Hf16     1.0000 0.37277  0.27238  0.11627  Biso   1.000  Hf
  Hf17     1.0000 0.36310  0.26155  0.62197  Biso   1.000  Hf
  Hf18     1.0000 0.36979  0.76156  0.12259  Biso   1.000  Hf
  Hf19     1.0000 0.36101  0.76200  0.62693  Biso   1.000  Hf
  Hf20     1.0000 0.86445  0.26758  0.12770  Biso   1.000  Hf
  Hf21     1.0000 0.86165  0.26421  0.62668  Biso   1.000  Hf
  Hf22     1.0000 0.86052  0.76527  0.12999  Biso   1.000  Hf
  Hf23     1.0000 0.86363  0.76148  0.62571  Biso   1.000  Hf
  Hf24     1.0000 0.36362  0.47866  0.37480  Biso   1.000  Hf
  Hf25     1.0000 0.36199  0.48035  0.87312  Biso   1.000  Hf
  Hf26     1.0000 0.36979  0.97392  0.37941  Biso   1.000  Hf
  Hf27     1.0000 0.36438  0.97910  0.87328  Biso   1.000  Hf
  Hf28     1.0000 0.86185  0.48240  0.37737  Biso   1.000  Hf
  Hf29     1.0000 0.86147  0.47850  0.87675  Biso   1.000  Hf
  Hf30     1.0000 0.85831  0.97984  0.38080  Biso   1.000  Hf
  Hf31     1.0000 0.86049  0.97746  0.87452  Biso   1.000  Hf
  Hf32     1.0000 0.03019  0.19434  0.20397  Biso   1.000  Hf
  Hf33     1.0000 0.03728  0.18578  0.68100  Biso   1.000  Hf
  Hf34     1.0000 0.03564  0.68596  0.19356  Biso   1.000  Hf
  Hf35     1.0000 0.03248  0.68022  0.69531  Biso   1.000  Hf
  Hf36     1.0000 0.52865  0.18072  0.19807  Biso   1.000  Hf
  Hf37     1.0000 0.53200  0.18004  0.69488  Biso   1.000  Hf
  Hf38     1.0000 0.53470  0.68124  0.19755  Biso   1.000  Hf
  Hf39     1.0000 0.53148  0.67911  0.69532  Biso   1.000  Hf
  Hf40     1.0000 0.03178  0.06155  0.44033  Biso   1.000  Hf
  Hf41     1.0000 0.02861  0.06815  0.91661  Biso   1.000  Hf
  Hf42     1.0000 0.03224  0.56205  0.44652  Biso   1.000  Hf
  Hf43     1.0000 0.02952  0.56416  0.94454  Biso   1.000  Hf
  Hf44     1.0000 0.53531  0.06214  0.44615  Biso   1.000  Hf
  Hf45     1.0000 0.53266  0.06253  0.94320  Biso   1.000  Hf
  Hf46     1.0000 0.53206  0.56201  0.44541  Biso   1.000  Hf
  Hf47     1.0000 0.53023  0.56256  0.94566  Biso   1.000  Hf
  Hf48     1.0000 0.46586  0.43502  0.19398  Biso   1.000  Hf
  Hf49     1.0000 0.46000  0.42902  0.69249  Biso   1.000  Hf
  Hf50     1.0000 0.45661  0.93927  0.19134  Biso   1.000  Hf
  Hf51     1.0000 0.46182  0.92894  0.69412  Biso   1.000  Hf
  Hf52     1.0000 0.96164  0.43768  0.19701  Biso   1.000  Hf
  Hf53     1.0000 0.96131  0.43039  0.69762  Biso   1.000  Hf
  Hf54     1.0000 0.93690  0.92961  0.20415  Biso   1.000  Hf
  Hf55     1.0000 0.95922  0.93007  0.69150  Biso   1.000  Hf
  Hf56     1.0000 0.46192  0.31276  0.44475  Biso   1.000  Hf
  Hf57     1.0000 0.46351  0.31529  0.94132  Biso   1.000  Hf
  Hf58     1.0000 0.46288  0.81248  0.44824  Biso   1.000  Hf
  Hf59     1.0000 0.46807  0.81373  0.94640  Biso   1.000  Hf
  Hf60     1.0000 0.95716  0.31597  0.44726  Biso   1.000  Hf
  Hf61     1.0000 0.96172  0.31366  0.94808  Biso   1.000  Hf
  Hf62     1.0000 0.96092  0.81153  0.44582  Biso   1.000  Hf
  Hf63     1.0000 0.96715  0.81865  0.95528  Biso   1.000  Hf
  Hf64     1.0000 0.26771  0.11286  0.74274  Biso   1.000  Hf
  Hf65     1.0000 0.26482  0.60570  0.24849  Biso   1.000  Hf
  Hf66     1.0000 0.26633  0.61394  0.74896  Biso   1.000  Hf
  Hf67     1.0000 0.76369  0.11680  0.25195  Biso   1.000  Hf
  Hf68     1.0000 0.76712  0.11435  0.75028  Biso   1.000  Hf
  Hf69     1.0000 0.76824  0.61687  0.25106  Biso   1.000  Hf
  Hf70     1.0000 0.76706  0.61240  0.74934  Biso   1.000  Hf
  Hf71     1.0000 0.26999  0.12811  0.48509  Biso   1.000  Hf
  Hf72     1.0000 0.27044  0.13212  0.99521  Biso   1.000  Hf
  Hf73     1.0000 0.26802  0.62857  0.49928  Biso   1.000  Hf
  Hf74     1.0000 0.26505  0.62435  0.99870  Biso   1.000  Hf
  Hf75     1.0000 0.76577  0.13041  0.50232  Biso   1.000  Hf
  Hf76     1.0000 0.77310  0.13206  0.00149  Biso   1.000  Hf
  Hf77     1.0000 0.76705  0.62799  0.50069  Biso   1.000  Hf
  Hf78     1.0000 0.76464  0.62589  0.99926  Biso   1.000  Hf
  Hf79     1.0000 0.22589  0.38028  0.49863  Biso   1.000  Hf
  Hf80     1.0000 0.22569  0.38026  0.99614  Biso   1.000  Hf
  Hf81     1.0000 0.22691  0.87857  0.50024  Biso   1.000  Hf
  Hf82     1.0000 0.23856  0.86614  0.98900  Biso   1.000  Hf
  Hf83     1.0000 0.72573  0.37956  0.50072  Biso   1.000  Hf
  Hf84     1.0000 0.73156  0.38316  0.00003  Biso   1.000  Hf
  Hf85     1.0000 0.72541  0.87710  0.50338  Biso   1.000  Hf
  Hf86     1.0000 0.73293  0.88158  0.00139  Biso   1.000  Hf
  Hf87     1.0000 0.23464  0.35236  0.24843  Biso   1.000  Hf
  Hf88     1.0000 0.22797  0.36394  0.74651  Biso   1.000  Hf
  Hf89     1.0000 0.24310  0.85044  0.25739  Biso   1.000  Hf
  Hf90     1.0000 0.22503  0.86385  0.74672  Biso   1.000  Hf
  Hf91     1.0000 0.72721  0.36656  0.25055  Biso   1.000  Hf
  Hf92     1.0000 0.72569  0.36376  0.75066  Biso   1.000  Hf
  Hf93     1.0000 0.71302  0.86506  0.25297  Biso   1.000  Hf
  Hf94     1.0000 0.72757  0.86270  0.75095  Biso   1.000  Hf
