data_image0
_cell_length_a       10.0697
_cell_length_b       10.2753
_cell_length_c       10.4518
_cell_angle_alpha    90
_cell_angle_beta     90
_cell_angle_gamma    90

_symmetry_space_group_name_H-M    "P 1"
_symmetry_int_tables_number       1

loop_
  _symmetry_equiv_pos_as_xyz
  'x, y, z'

loop_
  _atom_site_label
  _atom_site_occupancy
  _atom_site_fract_x
  _atom_site_fract_y
  _atom_site_fract_z
  _atom_site_thermal_displace_type
  _atom_site_B_iso_or_equiv
  _atom_site_type_symbol
  La1      1.0000 0.13262  0.00726  0.15828  Biso   1.000  La
  Hf1      1.0000 0.13176  0.01940  0.66942  Biso   1.000  Hf
  Hf2      1.0000 0.13478  0.51745  0.17070  Biso   1.000  Hf
  Hf3      1.0000 0.13276  0.51995  0.67129  Biso   1.000  Hf
  Hf4      1.0000 0.13319  0.22528  0.42055  Biso   1.000  Hf
  Hf5      1.0000 0.12999  0.23172  0.91824  Biso   1.000  Hf
  Hf6      1.0000 0.13200  0.72608  0.42352  Biso   1.000  Hf
  Hf7      1.0000 0.13595  0.72605  0.92156  Biso   1.000  Hf
  Hf8      1.0000 0.35793  0.26726  0.17055  Biso   1.000  Hf
  Hf9      1.0000 0.35515  0.26911  0.66978  Biso   1.000  Hf
  Hf10     1.0000 0.35872  0.75533  0.17876  Biso   1.000  Hf
  Hf11     1.0000 0.35422  0.76928  0.67103  Biso   1.000  Hf
  Hf12     1.0000 0.35683  0.47451  0.42159  Biso   1.000  Hf
  Hf13     1.0000 0.35451  0.47468  0.92174  Biso   1.000  Hf
  Hf14     1.0000 0.35633  0.97793  0.42090  Biso   1.000  Hf
  Hf15     1.0000 0.35747  0.98461  0.90981  Biso   1.000  Hf
  Hf16     1.0000 0.65010  0.02467  0.08018  Biso   1.000  Hf
  Hf17     1.0000 0.63253  0.01960  0.58053  Biso   1.000  Hf
  Hf18     1.0000 0.63758  0.51829  0.07788  Biso   1.000  Hf
  Hf19     1.0000 0.63247  0.52015  0.57724  Biso   1.000  Hf
  Hf20     1.0000 0.63375  0.22819  0.32943  Biso   1.000  Hf
  Hf21     1.0000 0.63305  0.22724  0.82826  Biso   1.000  Hf
  Hf22     1.0000 0.63605  0.72954  0.32908  Biso   1.000  Hf
  Hf23     1.0000 0.63038  0.72681  0.82811  Biso   1.000  Hf
  Hf24     1.0000 0.86116  0.27525  0.07737  Biso   1.000  Hf
  Hf25     1.0000 0.85656  0.27078  0.57889  Biso   1.000  Hf
  Hf26     1.0000 0.85768  0.76741  0.07910  Biso   1.000  Hf
  Hf27     1.0000 0.85535  0.76951  0.57968  Biso   1.000  Hf
  Hf28     1.0000 0.85706  0.47887  0.32985  Biso   1.000  Hf
  Hf29     1.0000 0.85392  0.47904  0.82676  Biso   1.000  Hf
  Hf30     1.0000 0.85277  0.97997  0.33452  Biso   1.000  Hf
  Hf31     1.0000 0.85621  0.97653  0.82986  Biso   1.000  Hf
  Hf32     1.0000 0.03547  0.18964  0.08339  Biso   1.000  Hf
  Hf33     1.0000 0.02983  0.17130  0.59132  Biso   1.000  Hf
  Hf34     1.0000 0.04062  0.67997  0.09263  Biso   1.000  Hf
  Hf35     1.0000 0.02862  0.66852  0.58910  Biso   1.000  Hf
  Hf36     1.0000 0.02275  0.08005  0.34971  Biso   1.000  Hf
  Hf37     1.0000 0.03034  0.07762  0.83966  Biso   1.000  Hf
  Hf38     1.0000 0.03167  0.57864  0.33774  Biso   1.000  Hf
  Hf39     1.0000 0.02850  0.58132  0.83781  Biso   1.000  Hf
  Hf40     1.0000 0.46746  0.41187  0.08304  Biso   1.000  Hf
  Hf41     1.0000 0.46288  0.41217  0.58239  Biso   1.000  Hf
  Hf42     1.0000 0.46140  0.91198  0.58256  Biso   1.000  Hf
  Hf43     1.0000 0.46443  0.33494  0.33144  Biso   1.000  Hf
  Hf44     1.0000 0.46010  0.32998  0.83320  Biso   1.000  Hf
  Hf45     1.0000 0.46714  0.83847  0.32677  Biso   1.000  Hf
  Hf46     1.0000 0.46237  0.83489  0.83289  Biso   1.000  Hf
  Hf47     1.0000 0.27799  0.12632  0.30023  Biso   1.000  Hf
  Hf48     1.0000 0.26862  0.12291  0.78915  Biso   1.000  Hf
  Hf49     1.0000 0.27370  0.61680  0.29449  Biso   1.000  Hf
  Hf50     1.0000 0.27090  0.62260  0.79534  Biso   1.000  Hf
  Hf51     1.0000 0.28766  0.13337  0.03122  Biso   1.000  Hf
  Hf52     1.0000 0.27011  0.12369  0.54479  Biso   1.000  Hf
  Hf53     1.0000 0.27276  0.61654  0.04611  Biso   1.000  Hf
  Hf54     1.0000 0.27019  0.62390  0.54493  Biso   1.000  Hf
  Hf55     1.0000 0.21865  0.37112  0.29342  Biso   1.000  Hf
  Hf56     1.0000 0.21826  0.37339  0.79322  Biso   1.000  Hf
  Hf57     1.0000 0.22685  0.85902  0.30200  Biso   1.000  Hf
  Hf58     1.0000 0.21573  0.87215  0.79263  Biso   1.000  Hf
  Hf59     1.0000 0.22276  0.37626  0.04424  Biso   1.000  Hf
  Hf60     1.0000 0.21866  0.37491  0.54446  Biso   1.000  Hf
  Hf61     1.0000 0.26906  0.86147  0.03495  Biso   1.000  Hf
  Hf62     1.0000 0.21762  0.87534  0.54588  Biso   1.000  Hf
  Hf63     1.0000 0.52922  0.15620  0.16793  Biso   1.000  Hf
  Hf64     1.0000 0.52597  0.16164  0.66890  Biso   1.000  Hf
  Hf65     1.0000 0.53243  0.66487  0.16387  Biso   1.000  Hf
  Hf66     1.0000 0.52572  0.66304  0.66690  Biso   1.000  Hf
  Hf67     1.0000 0.52850  0.08435  0.41913  Biso   1.000  Hf
  Hf68     1.0000 0.53318  0.07743  0.91847  Biso   1.000  Hf
  Hf69     1.0000 0.52615  0.58574  0.41633  Biso   1.000  Hf
  Hf70     1.0000 0.52440  0.58195  0.91652  Biso   1.000  Hf
  Hf71     1.0000 0.95740  0.42843  0.15942  Biso   1.000  Hf
  Hf72     1.0000 0.95865  0.42108  0.66181  Biso   1.000  Hf
  Hf73     1.0000 0.93007  0.92289  0.16445  Biso   1.000  Hf
  Hf74     1.0000 0.95804  0.91731  0.66496  Biso   1.000  Hf
  Hf75     1.0000 0.96007  0.33110  0.41326  Biso   1.000  Hf
  Hf76     1.0000 0.95534  0.33182  0.90749  Biso   1.000  Hf
  Hf77     1.0000 0.95921  0.82908  0.41406  Biso   1.000  Hf
  Hf78     1.0000 0.96509  0.83424  0.92061  Biso   1.000  Hf
  Hf79     1.0000 0.77252  0.12275  0.95661  Biso   1.000  Hf
  Hf80     1.0000 0.76786  0.12473  0.45879  Biso   1.000  Hf
  Hf81     1.0000 0.76746  0.62075  0.95404  Biso   1.000  Hf
  Hf82     1.0000 0.77130  0.62269  0.45543  Biso   1.000  Hf
  Hf83     1.0000 0.77519  0.13109  0.20787  Biso   1.000  Hf
  Hf84     1.0000 0.77083  0.12465  0.70723  Biso   1.000  Hf
  Hf85     1.0000 0.77332  0.62763  0.20604  Biso   1.000  Hf
  Hf86     1.0000 0.76867  0.62537  0.70425  Biso   1.000  Hf
  Hf87     1.0000 0.71490  0.37303  0.95359  Biso   1.000  Hf
  Hf88     1.0000 0.71864  0.37426  0.45497  Biso   1.000  Hf
  Hf89     1.0000 0.71761  0.87147  0.95540  Biso   1.000  Hf
  Hf90     1.0000 0.71809  0.87269  0.45788  Biso   1.000  Hf
  Hf91     1.0000 0.71991  0.37666  0.20585  Biso   1.000  Hf
  Hf92     1.0000 0.71743  0.37409  0.70453  Biso   1.000  Hf
  Hf93     1.0000 0.70271  0.87646  0.20620  Biso   1.000  Hf
  Hf94     1.0000 0.71813  0.87376  0.70668  Biso   1.000  Hf
