data_image0
_cell_length_a       10.1437
_cell_length_b       10.3098
_cell_length_c       10.4466
_cell_angle_alpha    90
_cell_angle_beta     80
_cell_angle_gamma    90

_symmetry_space_group_name_H-M    "P 1"
_symmetry_int_tables_number       1

loop_
  _symmetry_equiv_pos_as_xyz
  'x, y, z'

loop_
  _atom_site_label
  _atom_site_occupancy
  _atom_site_fract_x
  _atom_site_fract_y
  _atom_site_fract_z
  _atom_site_thermal_displace_type
  _atom_site_B_iso_or_equiv
  _atom_site_type_symbol
  La1      1.0000 0.13622  0.01061  0.14514  Biso   1.000  La
  Hf1      1.0000 0.13048  0.02277  0.64727  Biso   1.000  Hf
  Hf2      1.0000 0.13455  0.52229  0.14570  Biso   1.000  Hf
  Hf3      1.0000 0.13061  0.52036  0.64861  Biso   1.000  Hf
  Hf4      1.0000 0.63529  0.01930  0.14639  Biso   1.000  Hf
  Hf5      1.0000 0.63133  0.02372  0.64732  Biso   1.000  Hf
  Hf6      1.0000 0.63763  0.51753  0.14610  Biso   1.000  Hf
  Hf7      1.0000 0.62960  0.52218  0.64673  Biso   1.000  Hf
  Hf8      1.0000 0.13201  0.22985  0.39938  Biso   1.000  Hf
  Hf9      1.0000 0.12756  0.23176  0.89711  Biso   1.000  Hf
  Hf10     1.0000 0.12889  0.72480  0.40251  Biso   1.000  Hf
  Hf11     1.0000 0.12684  0.72952  0.89583  Biso   1.000  Hf
  Hf12     1.0000 0.63329  0.23187  0.39787  Biso   1.000  Hf
  Hf13     1.0000 0.62763  0.23001  0.89849  Biso   1.000  Hf
  Hf14     1.0000 0.62967  0.72774  0.39671  Biso   1.000  Hf
  Hf15     1.0000 0.63262  0.72914  0.89283  Biso   1.000  Hf
  Hf16     1.0000 0.35826  0.27057  0.10475  Biso   1.000  Hf
  Hf17     1.0000 0.35279  0.27191  0.60632  Biso   1.000  Hf
  Hf18     1.0000 0.37063  0.76338  0.09410  Biso   1.000  Hf
  Hf19     1.0000 0.35174  0.77184  0.60432  Biso   1.000  Hf
  Hf20     1.0000 0.85965  0.27152  0.10320  Biso   1.000  Hf
  Hf21     1.0000 0.85378  0.27294  0.60620  Biso   1.000  Hf
  Hf22     1.0000 0.85384  0.76839  0.10455  Biso   1.000  Hf
  Hf23     1.0000 0.85233  0.77339  0.60406  Biso   1.000  Hf
  Hf24     1.0000 0.35538  0.47845  0.35463  Biso   1.000  Hf
  Hf25     1.0000 0.35181  0.47886  0.85598  Biso   1.000  Hf
  Hf26     1.0000 0.35968  0.98468  0.36112  Biso   1.000  Hf
  Hf27     1.0000 0.35155  0.97997  0.85248  Biso   1.000  Hf
  Hf28     1.0000 0.85552  0.47969  0.35515  Biso   1.000  Hf
  Hf29     1.0000 0.85017  0.47920  0.85461  Biso   1.000  Hf
  Hf30     1.0000 0.84788  0.98041  0.35821  Biso   1.000  Hf
  Hf31     1.0000 0.84959  0.98047  0.85640  Biso   1.000  Hf
  Hf32     1.0000 0.03608  0.18581  0.07912  Biso   1.000  Hf
  Hf33     1.0000 0.03056  0.17692  0.58897  Biso   1.000  Hf
  Hf34     1.0000 0.03642  0.67686  0.08327  Biso   1.000  Hf
  Hf35     1.0000 0.02824  0.67159  0.58361  Biso   1.000  Hf
  Hf36     1.0000 0.53431  0.16889  0.08202  Biso   1.000  Hf
  Hf37     1.0000 0.52744  0.17124  0.58203  Biso   1.000  Hf
  Hf38     1.0000 0.54113  0.66804  0.07737  Biso   1.000  Hf
  Hf39     1.0000 0.52633  0.67048  0.58283  Biso   1.000  Hf
  Hf40     1.0000 0.02209  0.08154  0.34996  Biso   1.000  Hf
  Hf41     1.0000 0.02854  0.07761  0.83579  Biso   1.000  Hf
  Hf42     1.0000 0.03125  0.57802  0.33258  Biso   1.000  Hf
  Hf43     1.0000 0.02602  0.57832  0.83345  Biso   1.000  Hf
  Hf44     1.0000 0.53483  0.07898  0.33420  Biso   1.000  Hf
  Hf45     1.0000 0.52834  0.08149  0.83081  Biso   1.000  Hf
  Hf46     1.0000 0.52927  0.58043  0.32963  Biso   1.000  Hf
  Hf47     1.0000 0.52675  0.58122  0.83157  Biso   1.000  Hf
  Hf48     1.0000 0.45924  0.42174  0.16932  Biso   1.000  Hf
  Hf49     1.0000 0.45529  0.42066  0.67064  Biso   1.000  Hf
  Hf50     1.0000 0.44353  0.92276  0.17227  Biso   1.000  Hf
  Hf51     1.0000 0.45403  0.92165  0.66811  Biso   1.000  Hf
  Hf52     1.0000 0.95711  0.42668  0.16646  Biso   1.000  Hf
  Hf53     1.0000 0.95359  0.42464  0.66820  Biso   1.000  Hf
  Hf54     1.0000 0.93072  0.92365  0.17376  Biso   1.000  Hf
  Hf55     1.0000 0.95340  0.92241  0.66924  Biso   1.000  Hf
  Hf56     1.0000 0.45693  0.33118  0.41984  Biso   1.000  Hf
  Hf57     1.0000 0.45481  0.33342  0.92243  Biso   1.000  Hf
  Hf58     1.0000 0.45485  0.82945  0.42131  Biso   1.000  Hf
  Hf59     1.0000 0.46263  0.83319  0.91616  Biso   1.000  Hf
  Hf60     1.0000 0.95643  0.33131  0.42030  Biso   1.000  Hf
  Hf61     1.0000 0.94873  0.32915  0.91551  Biso   1.000  Hf
  Hf62     1.0000 0.95770  0.82985  0.41664  Biso   1.000  Hf
  Hf63     1.0000 0.95089  0.83060  0.92101  Biso   1.000  Hf
  Hf64     1.0000 0.27983  0.13777  0.25286  Biso   1.000  Hf
  Hf65     1.0000 0.26713  0.13015  0.74119  Biso   1.000  Hf
  Hf66     1.0000 0.26849  0.64251  0.24189  Biso   1.000  Hf
  Hf67     1.0000 0.26657  0.63049  0.74233  Biso   1.000  Hf
  Hf68     1.0000 0.76898  0.13073  0.24190  Biso   1.000  Hf
  Hf69     1.0000 0.76870  0.13063  0.74299  Biso   1.000  Hf
  Hf70     1.0000 0.77066  0.62875  0.24155  Biso   1.000  Hf
  Hf71     1.0000 0.76801  0.63078  0.73953  Biso   1.000  Hf
  Hf72     1.0000 0.26916  0.12198  0.49621  Biso   1.000  Hf
  Hf73     1.0000 0.27407  0.12818  0.98320  Biso   1.000  Hf
  Hf74     1.0000 0.26865  0.61969  0.49273  Biso   1.000  Hf
  Hf75     1.0000 0.26416  0.61800  0.99225  Biso   1.000  Hf
  Hf76     1.0000 0.76667  0.12387  0.49410  Biso   1.000  Hf
  Hf77     1.0000 0.76292  0.12067  0.99418  Biso   1.000  Hf
  Hf78     1.0000 0.76859  0.62205  0.49107  Biso   1.000  Hf
  Hf79     1.0000 0.76511  0.61974  0.99107  Biso   1.000  Hf
  Hf80     1.0000 0.22325  0.37960  0.00889  Biso   1.000  Hf
  Hf81     1.0000 0.21673  0.37997  0.51092  Biso   1.000  Hf
  Hf82     1.0000 0.22610  0.86615  0.99786  Biso   1.000  Hf
  Hf83     1.0000 0.21418  0.88090  0.50367  Biso   1.000  Hf
  Hf84     1.0000 0.72207  0.37811  0.00908  Biso   1.000  Hf
  Hf85     1.0000 0.71574  0.38081  0.51029  Biso   1.000  Hf
  Hf86     1.0000 0.72038  0.87801  0.00845  Biso   1.000  Hf
  Hf87     1.0000 0.71526  0.88018  0.51070  Biso   1.000  Hf
  Hf88     1.0000 0.21730  0.37587  0.25978  Biso   1.000  Hf
  Hf89     1.0000 0.21445  0.37261  0.76055  Biso   1.000  Hf
  Hf90     1.0000 0.21195  0.87165  0.75593  Biso   1.000  Hf
  Hf91     1.0000 0.71919  0.37179  0.26047  Biso   1.000  Hf
  Hf92     1.0000 0.71355  0.37161  0.76018  Biso   1.000  Hf
  Hf93     1.0000 0.70218  0.86838  0.26216  Biso   1.000  Hf
  Hf94     1.0000 0.71540  0.87222  0.75863  Biso   1.000  Hf
