data_image0
_cell_length_a       10.046
_cell_length_b       10.226
_cell_length_c       10.0463
_cell_angle_alpha    90
_cell_angle_beta     90
_cell_angle_gamma    90

_symmetry_space_group_name_H-M    "P 1"
_symmetry_int_tables_number       1

loop_
  _symmetry_equiv_pos_as_xyz
  'x, y, z'

loop_
  _atom_site_label
  _atom_site_occupancy
  _atom_site_fract_x
  _atom_site_fract_y
  _atom_site_fract_z
  _atom_site_thermal_displace_type
  _atom_site_B_iso_or_equiv
  _atom_site_type_symbol
  La1      1.0000 0.11972  0.99580  0.12064  Biso   1.000  La
  Hf1      1.0000 0.12427  0.00413  0.62511  Biso   1.000  Hf
  Hf2      1.0000 0.12378  0.50484  0.12465  Biso   1.000  Hf
  Hf3      1.0000 0.11963  0.49958  0.62474  Biso   1.000  Hf
  Hf4      1.0000 0.62435  0.00422  0.12821  Biso   1.000  Hf
  Hf5      1.0000 0.61609  0.99979  0.62016  Biso   1.000  Hf
  Hf6      1.0000 0.62391  0.49968  0.12364  Biso   1.000  Hf
  Hf7      1.0000 0.61990  0.49927  0.62390  Biso   1.000  Hf
  Hf8      1.0000 0.11918  0.25244  0.37118  Biso   1.000  Hf
  Hf9      1.0000 0.12107  0.25259  0.87229  Biso   1.000  Hf
  Hf10     1.0000 0.12554  0.74285  0.37605  Biso   1.000  Hf
  Hf11     1.0000 0.13128  0.74505  0.86873  Biso   1.000  Hf
  Hf12     1.0000 0.62126  0.24915  0.37395  Biso   1.000  Hf
  Hf13     1.0000 0.61793  0.24674  0.87598  Biso   1.000  Hf
  Hf14     1.0000 0.61823  0.75077  0.37502  Biso   1.000  Hf
  Hf15     1.0000 0.62314  0.75492  0.87428  Biso   1.000  Hf
  Hf16     1.0000 0.37040  0.25249  0.12154  Biso   1.000  Hf
  Hf17     1.0000 0.36999  0.24909  0.62365  Biso   1.000  Hf
  Hf18     1.0000 0.37514  0.74287  0.12805  Biso   1.000  Hf
  Hf19     1.0000 0.37097  0.75070  0.62071  Biso   1.000  Hf
  Hf20     1.0000 0.87149  0.25277  0.12663  Biso   1.000  Hf
  Hf21     1.0000 0.87203  0.24679  0.62352  Biso   1.000  Hf
  Hf22     1.0000 0.86776  0.74518  0.13693  Biso   1.000  Hf
  Hf23     1.0000 0.87019  0.75496  0.62880  Biso   1.000  Hf
  Hf24     1.0000 0.36976  0.00183  0.37208  Biso   1.000  Hf
  Hf25     1.0000 0.37287  0.99814  0.87564  Biso   1.000  Hf
  Hf26     1.0000 0.37136  0.49512  0.37378  Biso   1.000  Hf
  Hf27     1.0000 0.37252  0.49903  0.87059  Biso   1.000  Hf
  Hf28     1.0000 0.87311  0.99826  0.37857  Biso   1.000  Hf
  Hf29     1.0000 0.86215  0.00437  0.86762  Biso   1.000  Hf
  Hf30     1.0000 0.86815  0.49911  0.37810  Biso   1.000  Hf
  Hf31     1.0000 0.86281  0.49771  0.86836  Biso   1.000  Hf
  Hf32     1.0000 0.98591  0.15649  0.99221  Biso   1.000  Hf
  Hf33     1.0000 0.00175  0.14919  0.50306  Biso   1.000  Hf
  Hf34     1.0000 0.02431  0.68561  0.02457  Biso   1.000  Hf
  Hf35     1.0000 0.00126  0.64995  0.51300  Biso   1.000  Hf
  Hf36     1.0000 0.50303  0.14927  0.00494  Biso   1.000  Hf
  Hf37     1.0000 0.49844  0.14756  0.50161  Biso   1.000  Hf
  Hf38     1.0000 0.51288  0.65004  0.00460  Biso   1.000  Hf
  Hf39     1.0000 0.49818  0.64614  0.50144  Biso   1.000  Hf
  Hf40     1.0000 0.98372  0.11592  0.25935  Biso   1.000  Hf
  Hf41     1.0000 0.99277  0.10173  0.74694  Biso   1.000  Hf
  Hf42     1.0000 0.99513  0.60140  0.25887  Biso   1.000  Hf
  Hf43     1.0000 0.00570  0.59987  0.76481  Biso   1.000  Hf
  Hf44     1.0000 0.49617  0.10059  0.25190  Biso   1.000  Hf
  Hf45     1.0000 0.49391  0.10149  0.74970  Biso   1.000  Hf
  Hf46     1.0000 0.49376  0.60010  0.25039  Biso   1.000  Hf
  Hf47     1.0000 0.50263  0.60214  0.75390  Biso   1.000  Hf
  Hf48     1.0000 0.00247  0.35707  0.24241  Biso   1.000  Hf
  Hf49     1.0000 0.99398  0.35317  0.74511  Biso   1.000  Hf
  Hf50     1.0000 0.99276  0.85093  0.26586  Biso   1.000  Hf
  Hf51     1.0000 0.98607  0.84979  0.77399  Biso   1.000  Hf
  Hf52     1.0000 0.49953  0.35166  0.24854  Biso   1.000  Hf
  Hf53     1.0000 0.49369  0.35117  0.74981  Biso   1.000  Hf
  Hf54     1.0000 0.50778  0.85094  0.23867  Biso   1.000  Hf
  Hf55     1.0000 0.49606  0.85036  0.74336  Biso   1.000  Hf
  Hf56     1.0000 0.99048  0.41266  0.99683  Biso   1.000  Hf
  Hf57     1.0000 0.99738  0.39798  0.49602  Biso   1.000  Hf
  Hf58     1.0000 0.98400  0.90184  0.51808  Biso   1.000  Hf
  Hf59     1.0000 0.49600  0.39807  0.00052  Biso   1.000  Hf
  Hf60     1.0000 0.49660  0.39663  0.49973  Biso   1.000  Hf
  Hf61     1.0000 0.51167  0.90175  0.98743  Biso   1.000  Hf
  Hf62     1.0000 0.49090  0.89579  0.49420  Biso   1.000  Hf
  Hf63     1.0000 0.25043  0.14847  0.25199  Biso   1.000  Hf
  Hf64     1.0000 0.23933  0.14906  0.74080  Biso   1.000  Hf
  Hf65     1.0000 0.24424  0.64066  0.24589  Biso   1.000  Hf
  Hf66     1.0000 0.25257  0.64296  0.74358  Biso   1.000  Hf
  Hf67     1.0000 0.73930  0.14917  0.24402  Biso   1.000  Hf
  Hf68     1.0000 0.74395  0.14635  0.74868  Biso   1.000  Hf
  Hf69     1.0000 0.74186  0.64305  0.25739  Biso   1.000  Hf
  Hf70     1.0000 0.75208  0.64670  0.75696  Biso   1.000  Hf
  Hf71     1.0000 0.25311  0.11576  0.98533  Biso   1.000  Hf
  Hf72     1.0000 0.24876  0.10054  0.49774  Biso   1.000  Hf
  Hf73     1.0000 0.25244  0.60124  0.99684  Biso   1.000  Hf
  Hf74     1.0000 0.24716  0.60005  0.49541  Biso   1.000  Hf
  Hf75     1.0000 0.74062  0.10170  0.99747  Biso   1.000  Hf
  Hf76     1.0000 0.74657  0.10154  0.49866  Biso   1.000  Hf
  Hf77     1.0000 0.76466  0.60003  0.01060  Biso   1.000  Hf
  Hf78     1.0000 0.75060  0.60218  0.50748  Biso   1.000  Hf
  Hf79     1.0000 0.24234  0.35711  0.00405  Biso   1.000  Hf
  Hf80     1.0000 0.24539  0.35161  0.50112  Biso   1.000  Hf
  Hf81     1.0000 0.25943  0.85077  0.99457  Biso   1.000  Hf
  Hf82     1.0000 0.23530  0.85088  0.50942  Biso   1.000  Hf
  Hf83     1.0000 0.73873  0.35314  0.99872  Biso   1.000  Hf
  Hf84     1.0000 0.74667  0.35121  0.49845  Biso   1.000  Hf
  Hf85     1.0000 0.76757  0.84976  0.99113  Biso   1.000  Hf
  Hf86     1.0000 0.74007  0.85041  0.50093  Biso   1.000  Hf
  Hf87     1.0000 0.24836  0.39583  0.24999  Biso   1.000  Hf
  Hf88     1.0000 0.24443  0.39640  0.75227  Biso   1.000  Hf
  Hf89     1.0000 0.25996  0.87845  0.26175  Biso   1.000  Hf
  Hf90     1.0000 0.24348  0.89665  0.75262  Biso   1.000  Hf
  Hf91     1.0000 0.75065  0.39651  0.24923  Biso   1.000  Hf
  Hf92     1.0000 0.74288  0.39414  0.74766  Biso   1.000  Hf
  Hf93     1.0000 0.75094  0.89676  0.24840  Biso   1.000  Hf
  Hf94     1.0000 0.74019  0.89840  0.74505  Biso   1.000  Hf
