data_image0
_cell_length_a       10.162
_cell_length_b       10.3101
_cell_length_c       10.4622
_cell_angle_alpha    90
_cell_angle_beta     80
_cell_angle_gamma    90

_symmetry_space_group_name_H-M    "P 1"
_symmetry_int_tables_number       1

loop_
  _symmetry_equiv_pos_as_xyz
  'x, y, z'

loop_
  _atom_site_label
  _atom_site_occupancy
  _atom_site_fract_x
  _atom_site_fract_y
  _atom_site_fract_z
  _atom_site_thermal_displace_type
  _atom_site_B_iso_or_equiv
  _atom_site_type_symbol
  La1      1.0000 0.13138  0.01170  0.14071  Biso   1.000  La
  Hf1      1.0000 0.13410  0.22766  0.39771  Biso   1.000  Hf
  Hf2      1.0000 0.35855  0.26888  0.10409  Biso   1.000  Hf
  Hf3      1.0000 0.35413  0.47705  0.35336  Biso   1.000  Hf
  Hf4      1.0000 0.03564  0.19223  0.07815  Biso   1.000  Hf
  Hf5      1.0000 0.02200  0.08145  0.34862  Biso   1.000  Hf
  Hf6      1.0000 0.46164  0.41623  0.17108  Biso   1.000  Hf
  Hf7      1.0000 0.45872  0.33090  0.42083  Biso   1.000  Hf
  Hf8      1.0000 0.28021  0.13475  0.24916  Biso   1.000  Hf
  Hf9      1.0000 0.27022  0.12002  0.49337  Biso   1.000  Hf
  Hf10     1.0000 0.22448  0.38003  0.00755  Biso   1.000  Hf
  Hf11     1.0000 0.21693  0.37100  0.25841  Biso   1.000  Hf
  Hf12     1.0000 0.13363  0.02114  0.64706  Biso   1.000  Hf
  Hf13     1.0000 0.12925  0.23229  0.89537  Biso   1.000  Hf
  Hf14     1.0000 0.35424  0.27045  0.60460  Biso   1.000  Hf
  Hf15     1.0000 0.35327  0.47781  0.85531  Biso   1.000  Hf
  Hf16     1.0000 0.03112  0.17354  0.58709  Biso   1.000  Hf
  Hf17     1.0000 0.03097  0.07723  0.83598  Biso   1.000  Hf
  Hf18     1.0000 0.45824  0.41709  0.67130  Biso   1.000  Hf
  Hf19     1.0000 0.45851  0.33341  0.92206  Biso   1.000  Hf
  Hf20     1.0000 0.26940  0.12890  0.73934  Biso   1.000  Hf
  Hf21     1.0000 0.27597  0.12743  0.98080  Biso   1.000  Hf
  Hf22     1.0000 0.21766  0.37900  0.50977  Biso   1.000  Hf
  Hf23     1.0000 0.21649  0.37216  0.75906  Biso   1.000  Hf
  Hf24     1.0000 0.13608  0.52059  0.14453  Biso   1.000  Hf
  Hf25     1.0000 0.13392  0.72654  0.39674  Biso   1.000  Hf
  Hf26     1.0000 0.36402  0.76713  0.10313  Biso   1.000  Hf
  Hf27     1.0000 0.35606  0.97910  0.35521  Biso   1.000  Hf
  Hf28     1.0000 0.03646  0.67622  0.08312  Biso   1.000  Hf
  Hf29     1.0000 0.03141  0.58018  0.33081  Biso   1.000  Hf
  Hf30     1.0000 0.46148  0.91984  0.16876  Biso   1.000  Hf
  Hf31     1.0000 0.45792  0.83113  0.42316  Biso   1.000  Hf
  Hf32     1.0000 0.27330  0.62345  0.23876  Biso   1.000  Hf
  Hf33     1.0000 0.26959  0.62018  0.49085  Biso   1.000  Hf
  Hf34     1.0000 0.22994  0.86499  0.99635  Biso   1.000  Hf
  Hf35     1.0000 0.23189  0.85843  0.26428  Biso   1.000  Hf
  Hf36     1.0000 0.13185  0.52103  0.64658  Biso   1.000  Hf
  Hf37     1.0000 0.13081  0.72782  0.89549  Biso   1.000  Hf
  Hf38     1.0000 0.35250  0.77144  0.60468  Biso   1.000  Hf
  Hf39     1.0000 0.35374  0.97838  0.85280  Biso   1.000  Hf
  Hf40     1.0000 0.02933  0.67026  0.58253  Biso   1.000  Hf
  Hf41     1.0000 0.02739  0.57867  0.83195  Biso   1.000  Hf
  Hf42     1.0000 0.45795  0.91714  0.67110  Biso   1.000  Hf
  Hf43     1.0000 0.46456  0.83475  0.92087  Biso   1.000  Hf
  Hf44     1.0000 0.26834  0.62883  0.74103  Biso   1.000  Hf
  Hf45     1.0000 0.26621  0.61744  0.99124  Biso   1.000  Hf
  Hf46     1.0000 0.21634  0.87924  0.51099  Biso   1.000  Hf
  Hf47     1.0000 0.21481  0.87090  0.75757  Biso   1.000  Hf
  Hf48     1.0000 0.63903  0.02035  0.14674  Biso   1.000  Hf
  Hf49     1.0000 0.63323  0.22982  0.39704  Biso   1.000  Hf
  Hf50     1.0000 0.85808  0.27341  0.10337  Biso   1.000  Hf
  Hf51     1.0000 0.85666  0.47896  0.35494  Biso   1.000  Hf
  Hf52     1.0000 0.53524  0.16813  0.07976  Biso   1.000  Hf
  Hf53     1.0000 0.53343  0.08031  0.33150  Biso   1.000  Hf
  Hf54     1.0000 0.95635  0.42723  0.16718  Biso   1.000  Hf
  Hf55     1.0000 0.95881  0.33185  0.42076  Biso   1.000  Hf
  Hf56     1.0000 0.77170  0.13201  0.24329  Biso   1.000  Hf
  Hf57     1.0000 0.76755  0.12256  0.49466  Biso   1.000  Hf
  Hf58     1.0000 0.72147  0.37968  0.00883  Biso   1.000  Hf
  Hf59     1.0000 0.71894  0.37216  0.26109  Biso   1.000  Hf
  Hf60     1.0000 0.63383  0.02212  0.64814  Biso   1.000  Hf
  Hf61     1.0000 0.63126  0.22870  0.89805  Biso   1.000  Hf
  Hf62     1.0000 0.85513  0.27197  0.60547  Biso   1.000  Hf
  Hf63     1.0000 0.85180  0.47906  0.85379  Biso   1.000  Hf
  Hf64     1.0000 0.52802  0.16761  0.58119  Biso   1.000  Hf
  Hf65     1.0000 0.53018  0.08195  0.82989  Biso   1.000  Hf
  Hf66     1.0000 0.95603  0.42252  0.66789  Biso   1.000  Hf
  Hf67     1.0000 0.95094  0.32975  0.91398  Biso   1.000  Hf
  Hf68     1.0000 0.77114  0.12928  0.74279  Biso   1.000  Hf
  Hf69     1.0000 0.76749  0.12021  0.99294  Biso   1.000  Hf
  Hf70     1.0000 0.71752  0.37923  0.51037  Biso   1.000  Hf
  Hf71     1.0000 0.71593  0.37074  0.75969  Biso   1.000  Hf
  Hf72     1.0000 0.63541  0.51836  0.14676  Biso   1.000  Hf
  Hf73     1.0000 0.63037  0.72655  0.39758  Biso   1.000  Hf
  Hf74     1.0000 0.85407  0.76602  0.10401  Biso   1.000  Hf
  Hf75     1.0000 0.84758  0.97897  0.36074  Biso   1.000  Hf
  Hf76     1.0000 0.53641  0.66642  0.07836  Biso   1.000  Hf
  Hf77     1.0000 0.52817  0.58075  0.32969  Biso   1.000  Hf
  Hf78     1.0000 0.92682  0.92388  0.17404  Biso   1.000  Hf
  Hf79     1.0000 0.95804  0.82995  0.41877  Biso   1.000  Hf
  Hf80     1.0000 0.76992  0.62830  0.24181  Biso   1.000  Hf
  Hf81     1.0000 0.76943  0.62091  0.49118  Biso   1.000  Hf
  Hf82     1.0000 0.72277  0.87778  0.00887  Biso   1.000  Hf
  Hf83     1.0000 0.70523  0.86873  0.26466  Biso   1.000  Hf
  Hf84     1.0000 0.63169  0.52070  0.64631  Biso   1.000  Hf
  Hf85     1.0000 0.63206  0.72858  0.89527  Biso   1.000  Hf
  Hf86     1.0000 0.85480  0.77149  0.60447  Biso   1.000  Hf
  Hf87     1.0000 0.85221  0.97845  0.85673  Biso   1.000  Hf
  Hf88     1.0000 0.52654  0.66670  0.58141  Biso   1.000  Hf
  Hf89     1.0000 0.52697  0.58181  0.83023  Biso   1.000  Hf
  Hf90     1.0000 0.95581  0.92024  0.67084  Biso   1.000  Hf
  Hf91     1.0000 0.95588  0.83061  0.92230  Biso   1.000  Hf
  Hf92     1.0000 0.76837  0.62935  0.73992  Biso   1.000  Hf
  Hf93     1.0000 0.76618  0.61890  0.99104  Biso   1.000  Hf
  Hf94     1.0000 0.71602  0.87840  0.51262  Biso   1.000  Hf
  Hf95     1.0000 0.71741  0.87101  0.76016  Biso   1.000  Hf
