data_image0
_cell_length_a       10.0915
_cell_length_b       10.2707
_cell_length_c       5.03919
_cell_angle_alpha    90
_cell_angle_beta     90
_cell_angle_gamma    90

_symmetry_space_group_name_H-M    "P 1"
_symmetry_int_tables_number       1

loop_
  _symmetry_equiv_pos_as_xyz
  'x, y, z'

loop_
  _atom_site_label
  _atom_site_occupancy
  _atom_site_fract_x
  _atom_site_fract_y
  _atom_site_fract_z
  _atom_site_thermal_displace_type
  _atom_site_B_iso_or_equiv
  _atom_site_type_symbol
  La1      1.0000 0.12491  0.00005  0.24982  Biso   1.000  La
  Hf1      1.0000 0.12491  0.25673  0.74982  Biso   1.000  Hf
  Hf2      1.0000 0.37707  0.25282  0.24674  Biso   1.000  Hf
  Hf3      1.0000 0.37878  0.00005  0.74982  Biso   1.000  Hf
  Hf4      1.0000 0.99807  0.15416  0.00218  Biso   1.000  Hf
  Hf5      1.0000 0.98563  0.11735  0.52594  Biso   1.000  Hf
  Hf6      1.0000 0.00511  0.35638  0.48144  Biso   1.000  Hf
  Hf7      1.0000 0.99909  0.39883  0.98634  Biso   1.000  Hf
  Hf8      1.0000 0.25175  0.15416  0.49746  Biso   1.000  Hf
  Hf9      1.0000 0.26419  0.11735  0.97369  Biso   1.000  Hf
  Hf10     1.0000 0.24471  0.35638  0.01819  Biso   1.000  Hf
  Hf11     1.0000 0.25073  0.39884  0.51330  Biso   1.000  Hf
  Hf12     1.0000 0.12491  0.50005  0.24981  Biso   1.000  Hf
  Hf13     1.0000 0.12491  0.74338  0.74981  Biso   1.000  Hf
  Hf14     1.0000 0.37707  0.74729  0.25290  Biso   1.000  Hf
  Hf15     1.0000 0.37607  0.50005  0.74982  Biso   1.000  Hf
  Hf16     1.0000 0.00511  0.64373  0.01819  Biso   1.000  Hf
  Hf17     1.0000 0.99909  0.60127  0.51329  Biso   1.000  Hf
  Hf18     1.0000 0.99807  0.84595  0.49746  Biso   1.000  Hf
  Hf19     1.0000 0.98563  0.88275  0.97369  Biso   1.000  Hf
  Hf20     1.0000 0.24471  0.64372  0.48144  Biso   1.000  Hf
  Hf21     1.0000 0.25073  0.60128  0.98634  Biso   1.000  Hf
  Hf22     1.0000 0.25175  0.84595  0.00217  Biso   1.000  Hf
  Hf23     1.0000 0.26419  0.88275  0.52594  Biso   1.000  Hf
  Hf24     1.0000 0.62491  0.00005  0.24982  Biso   1.000  Hf
  Hf25     1.0000 0.62491  0.24892  0.74982  Biso   1.000  Hf
  Hf26     1.0000 0.87274  0.25282  0.25290  Biso   1.000  Hf
  Hf27     1.0000 0.87104  0.00005  0.74982  Biso   1.000  Hf
  Hf28     1.0000 0.50997  0.14966  0.01726  Biso   1.000  Hf
  Hf29     1.0000 0.49863  0.10137  0.50814  Biso   1.000  Hf
  Hf30     1.0000 0.50407  0.35277  0.49788  Biso   1.000  Hf
  Hf31     1.0000 0.49645  0.39835  0.00088  Biso   1.000  Hf
  Hf32     1.0000 0.73985  0.14966  0.48238  Biso   1.000  Hf
  Hf33     1.0000 0.75119  0.10136  0.99149  Biso   1.000  Hf
  Hf34     1.0000 0.74575  0.35277  0.00176  Biso   1.000  Hf
  Hf35     1.0000 0.75337  0.39834  0.49877  Biso   1.000  Hf
  Hf36     1.0000 0.62491  0.50005  0.24982  Biso   1.000  Hf
  Hf37     1.0000 0.62491  0.75119  0.74982  Biso   1.000  Hf
  Hf38     1.0000 0.87274  0.74729  0.24674  Biso   1.000  Hf
  Hf39     1.0000 0.87375  0.50005  0.74982  Biso   1.000  Hf
  Hf40     1.0000 0.50407  0.64734  0.00176  Biso   1.000  Hf
  Hf41     1.0000 0.49645  0.60176  0.49876  Biso   1.000  Hf
  Hf42     1.0000 0.50997  0.85045  0.48238  Biso   1.000  Hf
  Hf43     1.0000 0.49863  0.89874  0.99149  Biso   1.000  Hf
  Hf44     1.0000 0.74575  0.64734  0.49788  Biso   1.000  Hf
  Hf45     1.0000 0.75337  0.60176  0.00087  Biso   1.000  Hf
  Hf46     1.0000 0.73985  0.85045  0.01726  Biso   1.000  Hf
  Hf47     1.0000 0.75119  0.89874  0.50814  Biso   1.000  Hf
