data_image0
_cell_length_a       10.0064
_cell_length_b       10.3833
_cell_length_c       10.0494
_cell_angle_alpha    90
_cell_angle_beta     90
_cell_angle_gamma    90

_symmetry_space_group_name_H-M    "P 1"
_symmetry_int_tables_number       1

loop_
  _symmetry_equiv_pos_as_xyz
  'x, y, z'

loop_
  _atom_site_label
  _atom_site_occupancy
  _atom_site_fract_x
  _atom_site_fract_y
  _atom_site_fract_z
  _atom_site_thermal_displace_type
  _atom_site_B_iso_or_equiv
  _atom_site_type_symbol
  La1      1.0000 0.12330  0.00635  0.12065  Biso   1.000  La
  Hf1      1.0000 0.13279  0.23348  0.37763  Biso   1.000  Hf
  Hf2      1.0000 0.36375  0.26509  0.12661  Biso   1.000  Hf
  Hf3      1.0000 0.36306  0.48194  0.37540  Biso   1.000  Hf
  Hf4      1.0000 0.02751  0.19675  0.20365  Biso   1.000  Hf
  Hf5      1.0000 0.03307  0.06372  0.44109  Biso   1.000  Hf
  Hf6      1.0000 0.46347  0.43218  0.19607  Biso   1.000  Hf
  Hf7      1.0000 0.46127  0.31398  0.44451  Biso   1.000  Hf
  Hf8      1.0000 0.27843  0.12649  0.25593  Biso   1.000  Hf
  Hf9      1.0000 0.26724  0.12992  0.50106  Biso   1.000  Hf
  Hf10     1.0000 0.22796  0.38202  0.49963  Biso   1.000  Hf
  Hf11     1.0000 0.22594  0.36836  0.24924  Biso   1.000  Hf
  Hf12     1.0000 0.13042  0.01518  0.62556  Biso   1.000  Hf
  Hf13     1.0000 0.13102  0.23453  0.87026  Biso   1.000  Hf
  Hf14     1.0000 0.36366  0.26414  0.62469  Biso   1.000  Hf
  Hf15     1.0000 0.36299  0.48067  0.87613  Biso   1.000  Hf
  Hf16     1.0000 0.03753  0.18820  0.68262  Biso   1.000  Hf
  Hf17     1.0000 0.02903  0.07129  0.91449  Biso   1.000  Hf
  Hf18     1.0000 0.46243  0.43145  0.69550  Biso   1.000  Hf
  Hf19     1.0000 0.46308  0.31562  0.94498  Biso   1.000  Hf
  Hf20     1.0000 0.26869  0.11600  0.74662  Biso   1.000  Hf
  Hf21     1.0000 0.27236  0.13561  0.99057  Biso   1.000  Hf
  Hf22     1.0000 0.22612  0.38109  0.99896  Biso   1.000  Hf
  Hf23     1.0000 0.22871  0.36730  0.74762  Biso   1.000  Hf
  Hf24     1.0000 0.13328  0.51579  0.12523  Biso   1.000  Hf
  Hf25     1.0000 0.13260  0.73178  0.37726  Biso   1.000  Hf
  Hf26     1.0000 0.36953  0.76251  0.12459  Biso   1.000  Hf
  Hf27     1.0000 0.36396  0.98317  0.37475  Biso   1.000  Hf
  Hf28     1.0000 0.03538  0.68639  0.19518  Biso   1.000  Hf
  Hf29     1.0000 0.03338  0.56493  0.44642  Biso   1.000  Hf
  Hf30     1.0000 0.46221  0.93534  0.19211  Biso   1.000  Hf
  Hf31     1.0000 0.46324  0.81578  0.44775  Biso   1.000  Hf
  Hf32     1.0000 0.26807  0.61258  0.24906  Biso   1.000  Hf
  Hf33     1.0000 0.26809  0.63141  0.49982  Biso   1.000  Hf
  Hf34     1.0000 0.22678  0.88222  0.49939  Biso   1.000  Hf
  Hf35     1.0000 0.24212  0.85401  0.25628  Biso   1.000  Hf
  Hf36     1.0000 0.13158  0.51525  0.62600  Biso   1.000  Hf
  Hf37     1.0000 0.13278  0.73099  0.87564  Biso   1.000  Hf
  Hf38     1.0000 0.36325  0.76547  0.62523  Biso   1.000  Hf
  Hf39     1.0000 0.36600  0.98263  0.87287  Biso   1.000  Hf
  Hf40     1.0000 0.03324  0.68257  0.69588  Biso   1.000  Hf
  Hf41     1.0000 0.03117  0.56692  0.94477  Biso   1.000  Hf
  Hf42     1.0000 0.46237  0.93195  0.69432  Biso   1.000  Hf
  Hf43     1.0000 0.46929  0.81587  0.94608  Biso   1.000  Hf
  Hf44     1.0000 0.26805  0.61589  0.74964  Biso   1.000  Hf
  Hf45     1.0000 0.26715  0.62697  0.99974  Biso   1.000  Hf
  Hf46     1.0000 0.24080  0.86915  0.98920  Biso   1.000  Hf
  Hf47     1.0000 0.22619  0.86633  0.74644  Biso   1.000  Hf
  Hf48     1.0000 0.63371  0.01514  0.12584  Biso   1.000  Hf
  Hf49     1.0000 0.63098  0.23260  0.37468  Biso   1.000  Hf
  Hf50     1.0000 0.86186  0.26806  0.12695  Biso   1.000  Hf
  Hf51     1.0000 0.86372  0.48309  0.37726  Biso   1.000  Hf
  Hf52     1.0000 0.53731  0.18451  0.19128  Biso   1.000  Hf
  Hf53     1.0000 0.53384  0.06494  0.44517  Biso   1.000  Hf
  Hf54     1.0000 0.96013  0.43904  0.19448  Biso   1.000  Hf
  Hf55     1.0000 0.96153  0.31795  0.44605  Biso   1.000  Hf
  Hf56     1.0000 0.76616  0.11672  0.25215  Biso   1.000  Hf
  Hf57     1.0000 0.76570  0.13295  0.50108  Biso   1.000  Hf
  Hf58     1.0000 0.72661  0.38165  0.49975  Biso   1.000  Hf
  Hf59     1.0000 0.72749  0.36793  0.25066  Biso   1.000  Hf
  Hf60     1.0000 0.63063  0.01588  0.62597  Biso   1.000  Hf
  Hf61     1.0000 0.63151  0.23159  0.87605  Biso   1.000  Hf
  Hf62     1.0000 0.86368  0.26652  0.62463  Biso   1.000  Hf
  Hf63     1.0000 0.86298  0.48105  0.87675  Biso   1.000  Hf
  Hf64     1.0000 0.53273  0.18232  0.69556  Biso   1.000  Hf
  Hf65     1.0000 0.53598  0.06349  0.94222  Biso   1.000  Hf
  Hf66     1.0000 0.96265  0.43318  0.69729  Biso   1.000  Hf
  Hf67     1.0000 0.96194  0.31644  0.94740  Biso   1.000  Hf
  Hf68     1.0000 0.76759  0.11658  0.74885  Biso   1.000  Hf
  Hf69     1.0000 0.77337  0.13168  0.00018  Biso   1.000  Hf
  Hf70     1.0000 0.72485  0.38056  0.99943  Biso   1.000  Hf
  Hf71     1.0000 0.72762  0.36573  0.75004  Biso   1.000  Hf
  Hf72     1.0000 0.63227  0.51463  0.12628  Biso   1.000  Hf
  Hf73     1.0000 0.63009  0.73132  0.37921  Biso   1.000  Hf
  Hf74     1.0000 0.85991  0.76369  0.12934  Biso   1.000  Hf
  Hf75     1.0000 0.85925  0.98202  0.38206  Biso   1.000  Hf
  Hf76     1.0000 0.53500  0.68018  0.19788  Biso   1.000  Hf
  Hf77     1.0000 0.53216  0.56377  0.44659  Biso   1.000  Hf
  Hf78     1.0000 0.93778  0.92823  0.20608  Biso   1.000  Hf
  Hf79     1.0000 0.96171  0.81357  0.44706  Biso   1.000  Hf
  Hf80     1.0000 0.76799  0.61652  0.25059  Biso   1.000  Hf
  Hf81     1.0000 0.76747  0.63031  0.50016  Biso   1.000  Hf
  Hf82     1.0000 0.72579  0.87968  0.50303  Biso   1.000  Hf
  Hf83     1.0000 0.71578  0.86517  0.25246  Biso   1.000  Hf
  Hf84     1.0000 0.63080  0.51400  0.62650  Biso   1.000  Hf
  Hf85     1.0000 0.63249  0.73024  0.87506  Biso   1.000  Hf
  Hf86     1.0000 0.86392  0.76352  0.62556  Biso   1.000  Hf
  Hf87     1.0000 0.85996  0.98054  0.87246  Biso   1.000  Hf
  Hf88     1.0000 0.53283  0.68167  0.69514  Biso   1.000  Hf
  Hf89     1.0000 0.53105  0.56477  0.94667  Biso   1.000  Hf
  Hf90     1.0000 0.95854  0.93223  0.69096  Biso   1.000  Hf
  Hf91     1.0000 0.96949  0.82216  0.95551  Biso   1.000  Hf
  Hf92     1.0000 0.76808  0.61463  0.74930  Biso   1.000  Hf
  Hf93     1.0000 0.76605  0.62852  0.99914  Biso   1.000  Hf
  Hf94     1.0000 0.73226  0.88008  0.00090  Biso   1.000  Hf
  Hf95     1.0000 0.72717  0.86476  0.75034  Biso   1.000  Hf
