data_image0
_cell_length_a       5.18863
_cell_length_b       10.348
_cell_length_c       10.0888
_cell_angle_alpha    90
_cell_angle_beta     90
_cell_angle_gamma    90

_symmetry_space_group_name_H-M    "P 1"
_symmetry_int_tables_number       1

loop_
  _symmetry_equiv_pos_as_xyz
  'x, y, z'

loop_
  _atom_site_label
  _atom_site_occupancy
  _atom_site_fract_x
  _atom_site_fract_y
  _atom_site_fract_z
  _atom_site_thermal_displace_type
  _atom_site_B_iso_or_equiv
  _atom_site_type_symbol
  Hf1      1.0000 0.07836  0.97248  0.10963  Biso   1.000  Hf
  Hf2      1.0000 0.16774  0.23026  0.41377  Biso   1.000  Hf
  Hf3      1.0000 0.76900  0.25353  0.12885  Biso   1.000  Hf
  Hf4      1.0000 0.71225  0.01007  0.37176  Biso   1.000  Hf
  Hf5      1.0000 0.98565  0.10996  0.99822  Biso   1.000  Hf
  Hf6      1.0000 0.00701  0.11007  0.25872  Biso   1.000  Hf
  Hf7      1.0000 0.99588  0.38020  0.26911  Biso   1.000  Hf
  Hf8      1.0000 0.99960  0.39507  0.00322  Biso   1.000  Hf
  Hf9      1.0000 0.55938  0.18382  0.29848  Biso   1.000  Hf
  Hf10     1.0000 0.52570  0.08359  0.04160  Biso   1.000  Hf
  Hf11     1.0000 0.53335  0.30036  0.96158  Biso   1.000  Hf
  Hf12     1.0000 0.51291  0.43881  0.21466  Biso   1.000  Hf
  Hf13     1.0000 0.14529  0.95746  0.64450  Biso   1.000  Hf
  Hf14     1.0000 0.19460  0.22389  0.84537  Biso   1.000  Hf
  Hf15     1.0000 0.65110  0.24344  0.61775  Biso   1.000  Hf
  Hf16     1.0000 0.72301  0.99077  0.88871  Biso   1.000  Hf
  Hf17     1.0000 0.89040  0.13134  0.51117  Biso   1.000  Hf
  Hf18     1.0000 0.01588  0.05283  0.76353  Biso   1.000  Hf
  Hf19     1.0000 0.88100  0.30306  0.76415  Biso   1.000  Hf
  Hf20     1.0000 0.93536  0.37723  0.51827  Biso   1.000  Hf
  Hf21     1.0000 0.48998  0.11201  0.75945  Biso   1.000  Hf
  Hf22     1.0000 0.40159  0.10069  0.51345  Biso   1.000  Hf
  Hf23     1.0000 0.43845  0.36038  0.48622  Biso   1.000  Hf
  Hf24     1.0000 0.40017  0.36951  0.73584  Biso   1.000  Hf
  Hf25     1.0000 0.16126  0.53585  0.13891  Biso   1.000  Hf
  Hf26     1.0000 0.09388  0.77422  0.36148  Biso   1.000  Hf
  Hf27     1.0000 0.64080  0.73734  0.10303  Biso   1.000  Hf
  Hf28     1.0000 0.71354  0.48676  0.37964  Biso   1.000  Hf
  Hf29     1.0000 0.91045  0.61527  0.99688  Biso   1.000  Hf
  Hf30     1.0000 0.87173  0.62701  0.25078  Biso   1.000  Hf
  Hf31     1.0000 0.80139  0.86537  0.24362  Biso   1.000  Hf
  Hf32     1.0000 0.81248  0.85509  0.98587  Biso   1.000  Hf
  Hf33     1.0000 0.34668  0.68594  0.23151  Biso   1.000  Hf
  Hf34     1.0000 0.41779  0.56970  0.98859  Biso   1.000  Hf
  Hf35     1.0000 0.33110  0.83998  0.00778  Biso   1.000  Hf
  Hf36     1.0000 0.27988  0.93132  0.27323  Biso   1.000  Hf
  Hf37     1.0000 0.21767  0.50027  0.60561  Biso   1.000  Hf
  Hf38     1.0000 0.17995  0.69885  0.85675  Biso   1.000  Hf
  Hf39     1.0000 0.65129  0.74327  0.60398  Biso   1.000  Hf
  Hf40     1.0000 0.70215  0.45811  0.87661  Biso   1.000  Hf
  Hf41     1.0000 0.95623  0.63282  0.50120  Biso   1.000  Hf
  Hf42     1.0000 0.98513  0.54564  0.76105  Biso   1.000  Hf
  Hf43     1.0000 0.95690  0.79548  0.72565  Biso   1.000  Hf
  Hf44     1.0000 0.87217  0.88975  0.49566  Biso   1.000  Hf
  Hf45     1.0000 0.46189  0.61748  0.73693  Biso   1.000  Hf
  Hf46     1.0000 0.46810  0.60277  0.48720  Biso   1.000  Hf
  Hf47     1.0000 0.38042  0.84903  0.49942  Biso   1.000  Hf
  Hf48     1.0000 0.43288  0.86126  0.75175  Biso   1.000  Hf
  La1      1.0000 0.27490  0.25691  0.13382  Biso   1.000  La
