data_image0
_cell_length_a       10.0837
_cell_length_b       10.2638
_cell_length_c       10.4801
_cell_angle_alpha    90
_cell_angle_beta     90
_cell_angle_gamma    90

_symmetry_space_group_name_H-M    "P 1"
_symmetry_int_tables_number       1

loop_
  _symmetry_equiv_pos_as_xyz
  'x, y, z'

loop_
  _atom_site_label
  _atom_site_occupancy
  _atom_site_fract_x
  _atom_site_fract_y
  _atom_site_fract_z
  _atom_site_thermal_displace_type
  _atom_site_B_iso_or_equiv
  _atom_site_type_symbol
  La1      1.0000 0.13424  0.01219  0.16334  Biso   1.000  La
  Hf1      1.0000 0.13738  0.22716  0.42296  Biso   1.000  Hf
  Hf2      1.0000 0.35905  0.26944  0.17120  Biso   1.000  Hf
  Hf3      1.0000 0.35859  0.47738  0.42080  Biso   1.000  Hf
  Hf4      1.0000 0.63984  0.02083  0.08043  Biso   1.000  Hf
  Hf5      1.0000 0.63666  0.22982  0.32856  Biso   1.000  Hf
  Hf6      1.0000 0.85860  0.27363  0.07609  Biso   1.000  Hf
  Hf7      1.0000 0.85991  0.47926  0.32814  Biso   1.000  Hf
  Hf8      1.0000 0.03195  0.18628  0.07969  Biso   1.000  Hf
  Hf9      1.0000 0.02156  0.08677  0.34925  Biso   1.000  Hf
  Hf10     1.0000 0.46694  0.41254  0.08185  Biso   1.000  Hf
  Hf11     1.0000 0.46711  0.33740  0.33191  Biso   1.000  Hf
  Hf12     1.0000 0.28154  0.12844  0.30357  Biso   1.000  Hf
  Hf13     1.0000 0.28681  0.13546  0.03347  Biso   1.000  Hf
  Hf14     1.0000 0.22080  0.37246  0.29451  Biso   1.000  Hf
  Hf15     1.0000 0.22228  0.37791  0.04457  Biso   1.000  Hf
  Hf16     1.0000 0.53224  0.16500  0.16706  Biso   1.000  Hf
  Hf17     1.0000 0.53236  0.08467  0.41770  Biso   1.000  Hf
  Hf18     1.0000 0.96222  0.42140  0.16386  Biso   1.000  Hf
  Hf19     1.0000 0.96568  0.33614  0.41677  Biso   1.000  Hf
  Hf20     1.0000 0.77080  0.12606  0.45852  Biso   1.000  Hf
  Hf21     1.0000 0.77482  0.12773  0.20715  Biso   1.000  Hf
  Hf22     1.0000 0.72250  0.37504  0.45378  Biso   1.000  Hf
  Hf23     1.0000 0.72171  0.37693  0.20469  Biso   1.000  Hf
  Hf24     1.0000 0.13795  0.02056  0.67225  Biso   1.000  Hf
  Hf25     1.0000 0.13636  0.23315  0.91893  Biso   1.000  Hf
  Hf26     1.0000 0.35919  0.27013  0.67131  Biso   1.000  Hf
  Hf27     1.0000 0.35840  0.47803  0.92199  Biso   1.000  Hf
  Hf28     1.0000 0.63712  0.02102  0.58040  Biso   1.000  Hf
  Hf29     1.0000 0.63720  0.22872  0.82812  Biso   1.000  Hf
  Hf30     1.0000 0.85958  0.27139  0.57825  Biso   1.000  Hf
  Hf31     1.0000 0.85738  0.47982  0.82573  Biso   1.000  Hf
  Hf32     1.0000 0.03245  0.16968  0.59050  Biso   1.000  Hf
  Hf33     1.0000 0.03312  0.08215  0.83793  Biso   1.000  Hf
  Hf34     1.0000 0.46612  0.41312  0.58205  Biso   1.000  Hf
  Hf35     1.0000 0.46554  0.33472  0.83214  Biso   1.000  Hf
  Hf36     1.0000 0.27385  0.12383  0.79220  Biso   1.000  Hf
  Hf37     1.0000 0.27390  0.12457  0.54688  Biso   1.000  Hf
  Hf38     1.0000 0.22264  0.37511  0.79392  Biso   1.000  Hf
  Hf39     1.0000 0.22262  0.37583  0.54529  Biso   1.000  Hf
  Hf40     1.0000 0.53068  0.16429  0.66694  Biso   1.000  Hf
  Hf41     1.0000 0.53534  0.08304  0.91491  Biso   1.000  Hf
  Hf42     1.0000 0.96400  0.41841  0.66312  Biso   1.000  Hf
  Hf43     1.0000 0.96154  0.33646  0.90947  Biso   1.000  Hf
  Hf44     1.0000 0.77544  0.12389  0.95586  Biso   1.000  Hf
  Hf45     1.0000 0.77466  0.12598  0.70654  Biso   1.000  Hf
  Hf46     1.0000 0.71935  0.37428  0.95272  Biso   1.000  Hf
  Hf47     1.0000 0.72194  0.37557  0.70308  Biso   1.000  Hf
  Hf48     1.0000 0.13784  0.52021  0.17134  Biso   1.000  Hf
  Hf49     1.0000 0.13757  0.72759  0.42245  Biso   1.000  Hf
  Hf50     1.0000 0.36468  0.76667  0.17122  Biso   1.000  Hf
  Hf51     1.0000 0.35933  0.97850  0.42216  Biso   1.000  Hf
  Hf52     1.0000 0.63717  0.51876  0.07750  Biso   1.000  Hf
  Hf53     1.0000 0.63794  0.72848  0.32915  Biso   1.000  Hf
  Hf54     1.0000 0.85567  0.76674  0.07740  Biso   1.000  Hf
  Hf55     1.0000 0.85275  0.97969  0.33389  Biso   1.000  Hf
  Hf56     1.0000 0.03307  0.66828  0.08427  Biso   1.000  Hf
  Hf57     1.0000 0.03135  0.58484  0.33434  Biso   1.000  Hf
  Hf58     1.0000 0.46791  0.91649  0.08414  Biso   1.000  Hf
  Hf59     1.0000 0.47010  0.83581  0.33332  Biso   1.000  Hf
  Hf60     1.0000 0.27560  0.61935  0.29457  Biso   1.000  Hf
  Hf61     1.0000 0.27436  0.62038  0.04614  Biso   1.000  Hf
  Hf62     1.0000 0.23258  0.86183  0.30177  Biso   1.000  Hf
  Hf63     1.0000 0.24214  0.86085  0.03327  Biso   1.000  Hf
  Hf64     1.0000 0.53231  0.66077  0.16798  Biso   1.000  Hf
  Hf65     1.0000 0.52947  0.58533  0.41744  Biso   1.000  Hf
  Hf66     1.0000 0.93871  0.91127  0.17176  Biso   1.000  Hf
  Hf67     1.0000 0.96533  0.83448  0.41771  Biso   1.000  Hf
  Hf68     1.0000 0.77428  0.62405  0.45453  Biso   1.000  Hf
  Hf69     1.0000 0.77414  0.62591  0.20425  Biso   1.000  Hf
  Hf70     1.0000 0.72166  0.87343  0.45811  Biso   1.000  Hf
  Hf71     1.0000 0.70876  0.87577  0.20743  Biso   1.000  Hf
  Hf72     1.0000 0.13662  0.52073  0.67107  Biso   1.000  Hf
  Hf73     1.0000 0.13736  0.72714  0.92053  Biso   1.000  Hf
  Hf74     1.0000 0.35773  0.77074  0.67112  Biso   1.000  Hf
  Hf75     1.0000 0.36156  0.97955  0.91875  Biso   1.000  Hf
  Hf76     1.0000 0.63608  0.52056  0.57680  Biso   1.000  Hf
  Hf77     1.0000 0.63528  0.72844  0.82678  Biso   1.000  Hf
  Hf78     1.0000 0.85978  0.77113  0.57916  Biso   1.000  Hf
  Hf79     1.0000 0.85840  0.97901  0.83024  Biso   1.000  Hf
  Hf80     1.0000 0.03105  0.66609  0.58546  Biso   1.000  Hf
  Hf81     1.0000 0.02946  0.58398  0.83242  Biso   1.000  Hf
  Hf82     1.0000 0.46516  0.91378  0.58344  Biso   1.000  Hf
  Hf83     1.0000 0.46641  0.83574  0.83022  Biso   1.000  Hf
  Hf84     1.0000 0.27347  0.62380  0.79498  Biso   1.000  Hf
  Hf85     1.0000 0.27346  0.62520  0.54507  Biso   1.000  Hf
  Hf86     1.0000 0.22150  0.87357  0.79244  Biso   1.000  Hf
  Hf87     1.0000 0.22133  0.87604  0.54623  Biso   1.000  Hf
  Hf88     1.0000 0.52904  0.66301  0.66681  Biso   1.000  Hf
  Hf89     1.0000 0.52789  0.58637  0.91774  Biso   1.000  Hf
  Hf90     1.0000 0.96365  0.91590  0.66779  Biso   1.000  Hf
  Hf91     1.0000 0.96701  0.83670  0.91991  Biso   1.000  Hf
  Hf92     1.0000 0.77085  0.62163  0.95243  Biso   1.000  Hf
  Hf93     1.0000 0.77225  0.62666  0.70307  Biso   1.000  Hf
  Hf94     1.0000 0.72141  0.87261  0.95493  Biso   1.000  Hf
  Hf95     1.0000 0.72193  0.87585  0.70602  Biso   1.000  Hf
