data_image0
_cell_length_a       10.1647
_cell_length_b       5.17296
_cell_length_c       10.1646
_cell_angle_alpha    90.0005
_cell_angle_beta     89.9979
_cell_angle_gamma    90.0005

_symmetry_space_group_name_H-M    "P 1"
_symmetry_int_tables_number       1

loop_
  _symmetry_equiv_pos_as_xyz
  'x, y, z'

loop_
  _atom_site_label
  _atom_site_occupancy
  _atom_site_fract_x
  _atom_site_fract_y
  _atom_site_fract_z
  _atom_site_thermal_displace_type
  _atom_site_B_iso_or_equiv
  _atom_site_type_symbol
  Zr1      1.0000 0.12540  0.00000  0.12540  Biso   1.000  Zr
  Zr2      1.0000 0.12541  0.50017  0.39041  Biso   1.000  Zr
  Zr3      1.0000 0.39041  0.50017  0.12541  Biso   1.000  Zr
  Zr4      1.0000 0.37640  0.00746  0.37640  Biso   1.000  Zr
  O1       1.0000 0.97986  0.31226  0.97986  Biso   1.000  O
  O2       1.0000 0.00040  0.18383  0.25039  Biso   1.000  O
  O3       1.0000 0.97989  0.68803  0.27090  Biso   1.000  O
  O4       1.0000 0.00037  0.81640  0.00038  Biso   1.000  O
  O5       1.0000 0.27092  0.31223  0.27092  Biso   1.000  O
  O6       1.0000 0.25039  0.18383  0.00040  Biso   1.000  O
  O7       1.0000 0.27090  0.68803  0.97989  Biso   1.000  O
  O8       1.0000 0.25042  0.81637  0.25042  Biso   1.000  O
  Zr5      1.0000 0.12539  0.00016  0.62539  Biso   1.000  Zr
  Zr6      1.0000 0.12538  0.50017  0.86038  Biso   1.000  Zr
  Zr7      1.0000 0.37723  0.50016  0.62541  Biso   1.000  Zr
  Zr8      1.0000 0.37639  0.99285  0.87440  Biso   1.000  Zr
  O9       1.0000 0.99424  0.28850  0.49823  Biso   1.000  O
  O10      1.0000 0.00384  0.21034  0.74429  Biso   1.000  O
  O11      1.0000 0.99423  0.71183  0.75254  Biso   1.000  O
  O12      1.0000 0.00385  0.78999  0.50648  Biso   1.000  O
  O13      1.0000 0.25655  0.28850  0.75256  Biso   1.000  O
  O14      1.0000 0.24695  0.21034  0.50650  Biso   1.000  O
  O15      1.0000 0.25656  0.71183  0.49825  Biso   1.000  O
  O16      1.0000 0.24694  0.78999  0.74430  Biso   1.000  O
  Zr9      1.0000 0.62539  0.00016  0.12539  Biso   1.000  Zr
  Zr10     1.0000 0.62541  0.50016  0.37722  Biso   1.000  Zr
  Zr11     1.0000 0.86038  0.50017  0.12538  Biso   1.000  Zr
  Zr12     1.0000 0.87440  0.99285  0.37639  Biso   1.000  Zr
  O17      1.0000 0.49823  0.28850  0.99424  Biso   1.000  O
  O18      1.0000 0.50650  0.21034  0.24695  Biso   1.000  O
  O19      1.0000 0.49825  0.71183  0.25656  Biso   1.000  O
  O20      1.0000 0.50648  0.78999  0.00386  Biso   1.000  O
  O21      1.0000 0.75256  0.28850  0.25655  Biso   1.000  O
  O22      1.0000 0.74429  0.21034  0.00385  Biso   1.000  O
  O23      1.0000 0.75254  0.71184  0.99423  Biso   1.000  O
  O24      1.0000 0.74431  0.79000  0.24693  Biso   1.000  O
  Zr13     1.0000 0.62540  0.00016  0.62540  Biso   1.000  Zr
  Zr14     1.0000 0.62539  0.50016  0.87357  Biso   1.000  Zr
  Zr15     1.0000 0.87357  0.50016  0.62539  Biso   1.000  Zr
  Zr16     1.0000 0.87439  0.00747  0.87439  Biso   1.000  Zr
  O25      1.0000 0.49574  0.29733  0.49574  Biso   1.000  O
  O26      1.0000 0.50406  0.20539  0.74674  Biso   1.000  O
  O27      1.0000 0.49573  0.70300  0.75507  Biso   1.000  O
  O28      1.0000 0.50406  0.79493  0.50406  Biso   1.000  O
  O29      1.0000 0.75505  0.29733  0.75506  Biso   1.000  O
  O30      1.0000 0.74674  0.20539  0.50406  Biso   1.000  O
  O31      1.0000 0.75506  0.70299  0.49573  Biso   1.000  O
  O32      1.0000 0.74673  0.79492  0.74673  Biso   1.000  O
  Ag1      1.0000 0.12539  0.49999  0.12539  Biso   1.000  Ag
