data_image0
_cell_length_a       10.2364
_cell_length_b       10.3658
_cell_length_c       10.5674
_cell_angle_alpha    90.128
_cell_angle_beta     79.7111
_cell_angle_gamma    90.0604

_symmetry_space_group_name_H-M    "P 1"
_symmetry_int_tables_number       1

loop_
  _symmetry_equiv_pos_as_xyz
  'x, y, z'

loop_
  _atom_site_label
  _atom_site_occupancy
  _atom_site_fract_x
  _atom_site_fract_y
  _atom_site_fract_z
  _atom_site_thermal_displace_type
  _atom_site_B_iso_or_equiv
  _atom_site_type_symbol
  Zr1      1.0000 0.13359  0.02117  0.14394  Biso   1.000  Zr
  Zr2      1.0000 0.13862  0.22897  0.39295  Biso   1.000  Zr
  Zr3      1.0000 0.34966  0.27485  0.09174  Biso   1.000  Zr
  Zr4      1.0000 0.35826  0.48135  0.35121  Biso   1.000  Zr
  O1       1.0000 0.03239  0.16852  0.07716  Biso   1.000  O
  O2       1.0000 0.03178  0.08111  0.32976  Biso   1.000  O
  O3       1.0000 0.46139  0.42324  0.16650  Biso   1.000  O
  O4       1.0000 0.48293  0.35491  0.43902  Biso   1.000  O
  O5       1.0000 0.26603  0.12618  0.23415  Biso   1.000  O
  O6       1.0000 0.27857  0.11864  0.48903  Biso   1.000  O
  O7       1.0000 0.21734  0.38322  0.00273  Biso   1.000  O
  O8       1.0000 0.21300  0.37474  0.25333  Biso   1.000  O
  Zr5      1.0000 0.13883  0.02097  0.64469  Biso   1.000  Zr
  Zr6      1.0000 0.13436  0.22884  0.89189  Biso   1.000  Zr
  Zr7      1.0000 0.36184  0.27419  0.60730  Biso   1.000  Zr
  Zr8      1.0000 0.35907  0.48131  0.85367  Biso   1.000  Zr
  O9       1.0000 0.03827  0.16872  0.57903  Biso   1.000  O
  O10      1.0000 0.03242  0.08240  0.82734  Biso   1.000  O
  O11      1.0000 0.46677  0.41605  0.67774  Biso   1.000  O
  O12      1.0000 0.46413  0.33487  0.92006  Biso   1.000  O
  O13      1.0000 0.27449  0.12883  0.73872  Biso   1.000  O
  O14      1.0000 0.27114  0.12331  0.98534  Biso   1.000  O
  O15      1.0000 0.22806  0.37719  0.50793  Biso   1.000  O
  O16      1.0000 0.22381  0.37191  0.75733  Biso   1.000  O
  Zr9      1.0000 0.13743  0.52378  0.14501  Biso   1.000  Zr
  Zr10     1.0000 0.13697  0.72766  0.39629  Biso   1.000  Zr
  Zr11     1.0000 0.35991  0.77300  0.10453  Biso   1.000  Zr
  Zr12     1.0000 0.36072  0.96855  0.35799  Biso   1.000  Zr
  O17      1.0000 0.03201  0.66898  0.07833  Biso   1.000  O
  O18      1.0000 0.03306  0.58388  0.32844  Biso   1.000  O
  O19      1.0000 0.46463  0.91913  0.17384  Biso   1.000  O
  O20      1.0000 0.46243  0.82544  0.42268  Biso   1.000  O
  O21      1.0000 0.27449  0.62990  0.24087  Biso   1.000  O
  O22      1.0000 0.27368  0.62110  0.49116  Biso   1.000  O
  O23      1.0000 0.22332  0.87996  0.00983  Biso   1.000  O
  O24      1.0000 0.22280  0.87017  0.26073  Biso   1.000  O
  Zr13     1.0000 0.13857  0.52194  0.64458  Biso   1.000  Zr
  Zr14     1.0000 0.13653  0.72928  0.89622  Biso   1.000  Zr
  Zr15     1.0000 0.36079  0.76946  0.60614  Biso   1.000  Zr
  Zr16     1.0000 0.35980  0.97879  0.85384  Biso   1.000  Zr
  O25      1.0000 0.03221  0.66656  0.57918  Biso   1.000  O
  O26      1.0000 0.03379  0.58333  0.82860  Biso   1.000  O
  O27      1.0000 0.46511  0.91664  0.67154  Biso   1.000  O
  O28      1.0000 0.46498  0.83548  0.92255  Biso   1.000  O
  O29      1.0000 0.27472  0.62797  0.74069  Biso   1.000  O
  O30      1.0000 0.27455  0.62447  0.99067  Biso   1.000  O
  O31      1.0000 0.22333  0.87640  0.51131  Biso   1.000  O
  O32      1.0000 0.22353  0.87116  0.76024  Biso   1.000  O
  Zr17     1.0000 0.64035  0.01936  0.14768  Biso   1.000  Zr
  Zr18     1.0000 0.65432  0.23096  0.40724  Biso   1.000  Zr
  Zr19     1.0000 0.85916  0.27303  0.10620  Biso   1.000  Zr
  Zr20     1.0000 0.86215  0.47859  0.35466  Biso   1.000  Zr
  O33      1.0000 0.52956  0.16587  0.07981  Biso   1.000  O
  O34      1.0000 0.54938  0.06204  0.34434  Biso   1.000  O
  O35      1.0000 0.96298  0.41934  0.17034  Biso   1.000  O
  O36      1.0000 0.96597  0.33257  0.42230  Biso   1.000  O
  O37      1.0000 0.77678  0.13002  0.24261  Biso   1.000  O
  O38      1.0000 0.78150  0.11956  0.49613  Biso   1.000  O
  O39      1.0000 0.72205  0.37867  0.01224  Biso   1.000  O
  O40      1.0000 0.72281  0.37170  0.26306  Biso   1.000  O
  Zr21     1.0000 0.63804  0.02132  0.64789  Biso   1.000  Zr
  Zr22     1.0000 0.63766  0.22873  0.89807  Biso   1.000  Zr
  Zr23     1.0000 0.86556  0.27141  0.60930  Biso   1.000  Zr
  Zr24     1.0000 0.85983  0.47963  0.85651  Biso   1.000  Zr
  O41      1.0000 0.53626  0.16854  0.58132  Biso   1.000  O
  O42      1.0000 0.53239  0.08401  0.82944  Biso   1.000  O
  O43      1.0000 0.96667  0.41803  0.67295  Biso   1.000  O
  O44      1.0000 0.96190  0.33214  0.92048  Biso   1.000  O
  O45      1.0000 0.77474  0.12920  0.74383  Biso   1.000  O
  O46      1.0000 0.77321  0.12127  0.99288  Biso   1.000  O
  O47      1.0000 0.73014  0.37772  0.51557  Biso   1.000  O
  O48      1.0000 0.72488  0.37190  0.76327  Biso   1.000  O
  Zr25     1.0000 0.63665  0.52272  0.14682  Biso   1.000  Zr
  Zr26     1.0000 0.63919  0.72602  0.39652  Biso   1.000  Zr
  Zr27     1.0000 0.85885  0.77052  0.10507  Biso   1.000  Zr
  Zr28     1.0000 0.86026  0.97659  0.35556  Biso   1.000  Zr
  O49      1.0000 0.53310  0.66992  0.07884  Biso   1.000  O
  O50      1.0000 0.53220  0.58587  0.32655  Biso   1.000  O
  O51      1.0000 0.96247  0.91672  0.17212  Biso   1.000  O
  O52      1.0000 0.96403  0.83176  0.42202  Biso   1.000  O
  O53      1.0000 0.77552  0.62855  0.24150  Biso   1.000  O
  O54      1.0000 0.77470  0.62026  0.49142  Biso   1.000  O
  O55      1.0000 0.72294  0.87926  0.01140  Biso   1.000  O
  O56      1.0000 0.72371  0.86914  0.25995  Biso   1.000  O
  Zr29     1.0000 0.63876  0.52191  0.64799  Biso   1.000  Zr
  Zr30     1.0000 0.63676  0.72927  0.89681  Biso   1.000  Zr
  Zr31     1.0000 0.86007  0.77178  0.60530  Biso   1.000  Zr
  Zr32     1.0000 0.85956  0.97848  0.85533  Biso   1.000  Zr
  O57      1.0000 0.53344  0.66506  0.57995  Biso   1.000  O
  O58      1.0000 0.53256  0.58524  0.82949  Biso   1.000  O
  O59      1.0000 0.96432  0.91770  0.67125  Biso   1.000  O
  O60      1.0000 0.96406  0.83364  0.92165  Biso   1.000  O
  O61      1.0000 0.77462  0.62898  0.74147  Biso   1.000  O
  O62      1.0000 0.77347  0.62210  0.99105  Biso   1.000  O
  O63      1.0000 0.72279  0.87804  0.51122  Biso   1.000  O
  O64      1.0000 0.72325  0.87205  0.76132  Biso   1.000  O
  Ag1      1.0000 0.43962  0.22438  0.29847  Biso   1.000  Ag
