data_image0
_cell_length_a       10.2793
_cell_length_b       10.4134
_cell_length_c       5.2965
_cell_angle_alpha    90.5125
_cell_angle_beta     78.8274
_cell_angle_gamma    90.4742

_symmetry_space_group_name_H-M    "P 1"
_symmetry_int_tables_number       1

loop_
  _symmetry_equiv_pos_as_xyz
  'x, y, z'

loop_
  _atom_site_label
  _atom_site_occupancy
  _atom_site_fract_x
  _atom_site_fract_y
  _atom_site_fract_z
  _atom_site_thermal_displace_type
  _atom_site_B_iso_or_equiv
  _atom_site_type_symbol
  Zr1      1.0000 0.13845  0.02389  0.28803  Biso   1.000  Zr
  Zr2      1.0000 0.13299  0.23640  0.78501  Biso   1.000  Zr
  Zr3      1.0000 0.35493  0.27977  0.22093  Biso   1.000  Zr
  Zr4      1.0000 0.35528  0.47589  0.68941  Biso   1.000  Zr
  O1       1.0000 0.03871  0.17183  0.15431  Biso   1.000  O
  O2       1.0000 0.03677  0.08412  0.65155  Biso   1.000  O
  O3       1.0000 0.46229  0.43078  0.32417  Biso   1.000  O
  O4       1.0000 0.47660  0.32896  0.84885  Biso   1.000  O
  O5       1.0000 0.28459  0.11788  0.47484  Biso   1.000  O
  O6       1.0000 0.29052  0.12958  0.95101  Biso   1.000  O
  O7       1.0000 0.22292  0.38211  0.00619  Biso   1.000  O
  O8       1.0000 0.20047  0.37921  0.49899  Biso   1.000  O
  Zr5      1.0000 0.13639  0.52503  0.28105  Biso   1.000  Zr
  Zr6      1.0000 0.13508  0.72570  0.79231  Biso   1.000  Zr
  Zr7      1.0000 0.35953  0.76708  0.20836  Biso   1.000  Zr
  Zr8      1.0000 0.35404  0.95570  0.70461  Biso   1.000  Zr
  O9       1.0000 0.02851  0.66881  0.15490  Biso   1.000  O
  O10      1.0000 0.03010  0.58634  0.65258  Biso   1.000  O
  O11      1.0000 0.46716  0.91200  0.34891  Biso   1.000  O
  O12      1.0000 0.46735  0.83024  0.84800  Biso   1.000  O
  O13      1.0000 0.27349  0.62575  0.47846  Biso   1.000  O
  O14      1.0000 0.27314  0.62338  0.97684  Biso   1.000  O
  O15      1.0000 0.22189  0.87789  0.02160  Biso   1.000  O
  O16      1.0000 0.21650  0.86629  0.51133  Biso   1.000  O
  Zr9      1.0000 0.64048  0.02038  0.29727  Biso   1.000  Zr
  Zr10     1.0000 0.65655  0.23082  0.81932  Biso   1.000  Zr
  Zr11     1.0000 0.86254  0.27302  0.22199  Biso   1.000  Zr
  Zr12     1.0000 0.86018  0.48191  0.71203  Biso   1.000  Zr
  O17      1.0000 0.53581  0.17120  0.18231  Biso   1.000  O
  O18      1.0000 0.52702  0.08976  0.66692  Biso   1.000  O
  O19      1.0000 0.96074  0.42272  0.34011  Biso   1.000  O
  O20      1.0000 0.95928  0.33394  0.84401  Biso   1.000  O
  O21      1.0000 0.77455  0.12866  0.49612  Biso   1.000  O
  O22      1.0000 0.78190  0.11903  0.99636  Biso   1.000  O
  O23      1.0000 0.72527  0.37907  0.03586  Biso   1.000  O
  O24      1.0000 0.72381  0.37089  0.53418  Biso   1.000  O
  Zr13     1.0000 0.63790  0.52566  0.29940  Biso   1.000  Zr
  Zr14     1.0000 0.63854  0.72661  0.79740  Biso   1.000  Zr
  Zr15     1.0000 0.85901  0.77421  0.21195  Biso   1.000  Zr
  Zr16     1.0000 0.86299  0.97595  0.71122  Biso   1.000  Zr
  O25      1.0000 0.53481  0.66966  0.16326  Biso   1.000  O
  O26      1.0000 0.53210  0.58028  0.66430  Biso   1.000  O
  O27      1.0000 0.96547  0.91996  0.34305  Biso   1.000  O
  O28      1.0000 0.96581  0.83547  0.84609  Biso   1.000  O
  O29      1.0000 0.77430  0.63126  0.48621  Biso   1.000  O
  O30      1.0000 0.77465  0.62282  0.98603  Biso   1.000  O
  O31      1.0000 0.72400  0.87924  0.02397  Biso   1.000  O
  O32      1.0000 0.72120  0.87446  0.52560  Biso   1.000  O
  Al1      1.0000 0.40475  0.20846  0.67281  Biso   1.000  Al
