data_image0
_cell_length_a       10.0197
_cell_length_b       10.4246
_cell_length_c       5.02902
_cell_angle_alpha    90.1625
_cell_angle_beta     89.2629
_cell_angle_gamma    89.8003

_symmetry_space_group_name_H-M    "P 1"
_symmetry_int_tables_number       1

loop_
  _symmetry_equiv_pos_as_xyz
  'x, y, z'

loop_
  _atom_site_label
  _atom_site_occupancy
  _atom_site_fract_x
  _atom_site_fract_y
  _atom_site_fract_z
  _atom_site_thermal_displace_type
  _atom_site_B_iso_or_equiv
  _atom_site_type_symbol
  As1      1.0000 0.11164  0.02418  0.21814  Biso   1.000  As
  Zr1      1.0000 0.13482  0.51622  0.25256  Biso   1.000  Zr
  Zr2      1.0000 0.63093  0.01515  0.24629  Biso   1.000  Zr
  Zr3      1.0000 0.63364  0.51595  0.25219  Biso   1.000  Zr
  Zr4      1.0000 0.14051  0.23529  0.74803  Biso   1.000  Zr
  Zr5      1.0000 0.13515  0.73434  0.75694  Biso   1.000  Zr
  Zr6      1.0000 0.63242  0.23326  0.74833  Biso   1.000  Zr
  Zr7      1.0000 0.63154  0.73540  0.74927  Biso   1.000  Zr
  Zr8      1.0000 0.36637  0.26465  0.25633  Biso   1.000  Zr
  Zr9      1.0000 0.36415  0.76787  0.26191  Biso   1.000  Zr
  Zr10     1.0000 0.86460  0.26486  0.24381  Biso   1.000  Zr
  Zr11     1.0000 0.86889  0.76230  0.23925  Biso   1.000  Zr
  Zr12     1.0000 0.36723  0.48550  0.75342  Biso   1.000  Zr
  Zr13     1.0000 0.35943  0.98465  0.75945  Biso   1.000  Zr
  Zr14     1.0000 0.86692  0.48299  0.74743  Biso   1.000  Zr
  Zr15     1.0000 0.86244  0.98370  0.74374  Biso   1.000  Zr
  O1       1.0000 0.03836  0.17607  0.38436  Biso   1.000  O
  O2       1.0000 0.03570  0.68428  0.38821  Biso   1.000  O
  O3       1.0000 0.54035  0.18648  0.38162  Biso   1.000  O
  O4       1.0000 0.53450  0.68316  0.39564  Biso   1.000  O
  O5       1.0000 0.03314  0.06454  0.90407  Biso   1.000  O
  O6       1.0000 0.03376  0.56507  0.89253  Biso   1.000  O
  O7       1.0000 0.53331  0.06729  0.88987  Biso   1.000  O
  O8       1.0000 0.53626  0.56648  0.89062  Biso   1.000  O
  O9       1.0000 0.46452  0.43354  0.39022  Biso   1.000  O
  O10      1.0000 0.46802  0.93311  0.40136  Biso   1.000  O
  O11      1.0000 0.96623  0.42831  0.38671  Biso   1.000  O
  O12      1.0000 0.96845  0.93763  0.35994  Biso   1.000  O
  O13      1.0000 0.46366  0.31592  0.88725  Biso   1.000  O
  O14      1.0000 0.46384  0.81834  0.90251  Biso   1.000  O
  O15      1.0000 0.96497  0.31351  0.88280  Biso   1.000  O
  O16      1.0000 0.96102  0.81661  0.87278  Biso   1.000  O
  O17      1.0000 0.28179  0.12651  0.51920  Biso   1.000  O
  O18      1.0000 0.26832  0.61474  0.50162  Biso   1.000  O
  O19      1.0000 0.77029  0.11523  0.49016  Biso   1.000  O
  O20      1.0000 0.77048  0.61522  0.49390  Biso   1.000  O
  O21      1.0000 0.26143  0.13223  0.01228  Biso   1.000  O
  O22      1.0000 0.27015  0.63376  0.00288  Biso   1.000  O
  O23      1.0000 0.77035  0.13166  0.98936  Biso   1.000  O
  O24      1.0000 0.76806  0.63359  0.99391  Biso   1.000  O
  O25      1.0000 0.23101  0.38271  0.99877  Biso   1.000  O
  O26      1.0000 0.22073  0.88475  0.02105  Biso   1.000  O
  O27      1.0000 0.73117  0.38195  0.99729  Biso   1.000  O
  O28      1.0000 0.72926  0.88355  0.99017  Biso   1.000  O
  O29      1.0000 0.22905  0.36958  0.49863  Biso   1.000  O
  O30      1.0000 0.23965  0.86057  0.52733  Biso   1.000  O
  O31      1.0000 0.73089  0.36626  0.49619  Biso   1.000  O
  O32      1.0000 0.73707  0.86570  0.49068  Biso   1.000  O
