data_image0
_cell_length_a       10.0971
_cell_length_b       10.573
_cell_length_c       5.09885
_cell_angle_alpha    89.6592
_cell_angle_beta     92.1726
_cell_angle_gamma    90.4739

_symmetry_space_group_name_H-M    "P 1"
_symmetry_int_tables_number       1

loop_
  _symmetry_equiv_pos_as_xyz
  'x, y, z'

loop_
  _atom_site_label
  _atom_site_occupancy
  _atom_site_fract_x
  _atom_site_fract_y
  _atom_site_fract_z
  _atom_site_thermal_displace_type
  _atom_site_B_iso_or_equiv
  _atom_site_type_symbol
  Zr1      1.0000 0.11445  0.97571  0.22132  Biso   1.000  Zr
  Zr2      1.0000 0.14034  0.20573  0.66386  Biso   1.000  Zr
  Zr3      1.0000 0.36761  0.26477  0.22904  Biso   1.000  Zr
  Zr4      1.0000 0.36876  0.48763  0.74670  Biso   1.000  Zr
  O1       1.0000 0.01165  0.14230  0.33822  Biso   1.000  O
  O2       1.0000 0.04082  0.05844  0.86673  Biso   1.000  O
  O3       1.0000 0.46570  0.43245  0.39910  Biso   1.000  O
  O4       1.0000 0.48096  0.32637  0.91722  Biso   1.000  O
  O5       1.0000 0.26031  0.09353  0.42355  Biso   1.000  O
  O6       1.0000 0.30197  0.14485  0.90454  Biso   1.000  O
  O7       1.0000 0.24800  0.41039  0.02026  Biso   1.000  O
  O8       1.0000 0.24062  0.36059  0.51387  Biso   1.000  O
  Zr5      1.0000 0.12552  0.52401  0.25774  Biso   1.000  Zr
  Zr6      1.0000 0.13439  0.74133  0.75127  Biso   1.000  Zr
  Zr7      1.0000 0.37205  0.76499  0.24515  Biso   1.000  Zr
  Zr8      1.0000 0.37524  0.98741  0.72715  Biso   1.000  Zr
  O9       1.0000 0.03301  0.68435  0.41264  Biso   1.000  O
  O10      1.0000 0.03270  0.57172  0.89595  Biso   1.000  O
  O11      1.0000 0.47398  0.92864  0.39301  Biso   1.000  O
  O12      1.0000 0.47137  0.82066  0.89686  Biso   1.000  O
  O13      1.0000 0.26745  0.61502  0.50523  Biso   1.000  O
  O14      1.0000 0.26308  0.64621  0.00258  Biso   1.000  O
  O15      1.0000 0.24365  0.89010  0.97675  Biso   1.000  O
  O16      1.0000 0.23691  0.85543  0.48286  Biso   1.000  O
  Zr9      1.0000 0.63566  0.01830  0.26564  Biso   1.000  Zr
  Zr10     1.0000 0.63562  0.23382  0.78024  Biso   1.000  Zr
  Zr11     1.0000 0.85182  0.27701  0.32128  Biso   1.000  Zr
  Zr12     1.0000 0.86658  0.48816  0.75507  Biso   1.000  Zr
  O17      1.0000 0.52773  0.17760  0.41528  Biso   1.000  O
  O18      1.0000 0.54553  0.06474  0.90390  Biso   1.000  O
  O19      1.0000 0.93747  0.46646  0.37123  Biso   1.000  O
  O20      1.0000 0.96147  0.30582  0.70307  Biso   1.000  O
  O21      1.0000 0.76545  0.11761  0.53414  Biso   1.000  O
  O22      1.0000 0.77525  0.13881  0.03697  Biso   1.000  O
  O23      1.0000 0.74609  0.38255  0.02103  Biso   1.000  O
  O24      1.0000 0.71257  0.37350  0.52567  Biso   1.000  O
  Zr13     1.0000 0.63000  0.51488  0.25871  Biso   1.000  Zr
  Zr14     1.0000 0.63240  0.73572  0.76446  Biso   1.000  Zr
  Zr15     1.0000 0.85987  0.76202  0.27986  Biso   1.000  Zr
  Zr16     1.0000 0.86163  0.98419  0.77595  Biso   1.000  Zr
  O25      1.0000 0.53416  0.67950  0.40477  Biso   1.000  O
  O26      1.0000 0.53244  0.57294  0.90804  Biso   1.000  O
  O27      1.0000 0.96993  0.91452  0.45823  Biso   1.000  O
  O28      1.0000 0.98668  0.82991  0.97424  Biso   1.000  O
  O29      1.0000 0.76305  0.62021  0.52125  Biso   1.000  O
  O30      1.0000 0.76788  0.63715  0.01307  Biso   1.000  O
  O31      1.0000 0.73780  0.88385  0.02398  Biso   1.000  O
  O32      1.0000 0.73225  0.86816  0.52168  Biso   1.000  O
  As1      1.0000 0.08782  0.27218  0.12575  Biso   1.000  As
