data_image0
_cell_length_a       10.1082
_cell_length_b       10.4401
_cell_length_c       10.1329
_cell_angle_alpha    89.6694
_cell_angle_beta     90.0042
_cell_angle_gamma    90.4624

_symmetry_space_group_name_H-M    "P 1"
_symmetry_int_tables_number       1

loop_
  _symmetry_equiv_pos_as_xyz
  'x, y, z'

loop_
  _atom_site_label
  _atom_site_occupancy
  _atom_site_fract_x
  _atom_site_fract_y
  _atom_site_fract_z
  _atom_site_thermal_displace_type
  _atom_site_B_iso_or_equiv
  _atom_site_type_symbol
  Zr1      1.0000 0.14654  0.99651  0.11066  Biso   1.000  Zr
  Zr2      1.0000 0.13165  0.23450  0.39396  Biso   1.000  Zr
  Zr3      1.0000 0.36622  0.26594  0.12239  Biso   1.000  Zr
  Zr4      1.0000 0.36951  0.48691  0.37417  Biso   1.000  Zr
  O1       1.0000 0.95352  0.19084  0.28653  Biso   1.000  O
  O2       1.0000 0.04082  0.06393  0.46223  Biso   1.000  O
  O3       1.0000 0.46222  0.43523  0.19230  Biso   1.000  O
  O4       1.0000 0.46729  0.31973  0.44583  Biso   1.000  O
  O5       1.0000 0.25698  0.11024  0.24970  Biso   1.000  O
  O6       1.0000 0.27435  0.13356  0.50088  Biso   1.000  O
  O7       1.0000 0.23929  0.38539  0.50039  Biso   1.000  O
  O8       1.0000 0.23163  0.36682  0.25412  Biso   1.000  O
  Zr5      1.0000 0.13894  0.01242  0.63024  Biso   1.000  Zr
  Zr6      1.0000 0.13807  0.23146  0.86821  Biso   1.000  Zr
  Zr7      1.0000 0.37114  0.26677  0.62584  Biso   1.000  Zr
  Zr8      1.0000 0.36910  0.48630  0.87123  Biso   1.000  Zr
  O9       1.0000 0.03787  0.18144  0.69495  Biso   1.000  O
  O10      1.0000 0.04681  0.05501  0.93000  Biso   1.000  O
  O11      1.0000 0.47072  0.43246  0.69605  Biso   1.000  O
  O12      1.0000 0.46446  0.31511  0.94120  Biso   1.000  O
  O13      1.0000 0.27456  0.11625  0.74750  Biso   1.000  O
  O14      1.0000 0.28387  0.12378  0.99320  Biso   1.000  O
  O15      1.0000 0.23557  0.39015  0.99505  Biso   1.000  O
  O16      1.0000 0.23455  0.36477  0.74588  Biso   1.000  O
  Zr9      1.0000 0.13355  0.52071  0.12402  Biso   1.000  Zr
  Zr10     1.0000 0.13405  0.73698  0.37525  Biso   1.000  Zr
  Zr11     1.0000 0.37005  0.75994  0.12293  Biso   1.000  Zr
  Zr12     1.0000 0.36584  0.98531  0.37382  Biso   1.000  Zr
  O17      1.0000 0.03728  0.68658  0.19339  Biso   1.000  O
  O18      1.0000 0.03343  0.57351  0.44224  Biso   1.000  O
  O19      1.0000 0.46168  0.93196  0.19480  Biso   1.000  O
  O20      1.0000 0.46837  0.81753  0.44340  Biso   1.000  O
  O21      1.0000 0.27013  0.61588  0.24599  Biso   1.000  O
  O22      1.0000 0.26958  0.63373  0.49487  Biso   1.000  O
  O23      1.0000 0.23415  0.88365  0.49672  Biso   1.000  O
  O24      1.0000 0.23480  0.86083  0.24426  Biso   1.000  O
  Zr13     1.0000 0.12922  0.51034  0.61959  Biso   1.000  Zr
  Zr14     1.0000 0.13298  0.73025  0.86824  Biso   1.000  Zr
  Zr15     1.0000 0.37015  0.76213  0.62033  Biso   1.000  Zr
  Zr16     1.0000 0.37351  0.98037  0.86883  Biso   1.000  Zr
  O25      1.0000 0.03658  0.68264  0.68925  Biso   1.000  O
  O26      1.0000 0.03421  0.56701  0.94724  Biso   1.000  O
  O27      1.0000 0.47128  0.93043  0.69229  Biso   1.000  O
  O28      1.0000 0.47549  0.81871  0.94971  Biso   1.000  O
  O29      1.0000 0.26705  0.61161  0.74369  Biso   1.000  O
  O30      1.0000 0.26891  0.63383  0.99481  Biso   1.000  O
  O31      1.0000 0.23984  0.87437  0.99051  Biso   1.000  O
  O32      1.0000 0.23807  0.86189  0.74516  Biso   1.000  O
  Zr17     1.0000 0.62676  0.00707  0.11774  Biso   1.000  Zr
  Zr18     1.0000 0.62882  0.23159  0.37885  Biso   1.000  Zr
  Zr19     1.0000 0.83070  0.26512  0.12832  Biso   1.000  Zr
  Zr20     1.0000 0.86716  0.48538  0.37529  Biso   1.000  Zr
  O33      1.0000 0.52511  0.18147  0.19412  Biso   1.000  O
  O34      1.0000 0.53279  0.06674  0.44781  Biso   1.000  O
  O35      1.0000 0.95761  0.43612  0.19209  Biso   1.000  O
  O36      1.0000 0.98469  0.33979  0.47621  Biso   1.000  O
  O37      1.0000 0.74123  0.11022  0.24577  Biso   1.000  O
  O38      1.0000 0.77249  0.13966  0.49671  Biso   1.000  O
  O39      1.0000 0.73645  0.38421  0.49999  Biso   1.000  O
  O40      1.0000 0.71801  0.37221  0.25427  Biso   1.000  O
  Zr21     1.0000 0.63981  0.01437  0.62213  Biso   1.000  Zr
  Zr22     1.0000 0.63118  0.23383  0.87034  Biso   1.000  Zr
  Zr23     1.0000 0.86902  0.26932  0.63103  Biso   1.000  Zr
  Zr24     1.0000 0.86558  0.48318  0.87934  Biso   1.000  Zr
  O41      1.0000 0.53975  0.18282  0.69107  Biso   1.000  O
  O42      1.0000 0.53962  0.06454  0.93758  Biso   1.000  O
  O43      1.0000 0.96716  0.43611  0.70752  Biso   1.000  O
  O44      1.0000 0.95527  0.31119  0.93508  Biso   1.000  O
  O45      1.0000 0.77226  0.11565  0.74752  Biso   1.000  O
  O46      1.0000 0.76657  0.13127  0.99690  Biso   1.000  O
  O47      1.0000 0.72095  0.38391  0.00089  Biso   1.000  O
  O48      1.0000 0.73139  0.36812  0.74966  Biso   1.000  O
  Zr25     1.0000 0.63085  0.52096  0.12785  Biso   1.000  Zr
  Zr26     1.0000 0.63930  0.73945  0.37555  Biso   1.000  Zr
  Zr27     1.0000 0.86824  0.76696  0.12443  Biso   1.000  Zr
  Zr28     1.0000 0.87613  0.00156  0.36406  Biso   1.000  Zr
  O49      1.0000 0.53674  0.68509  0.19881  Biso   1.000  O
  O50      1.0000 0.53745  0.56928  0.44616  Biso   1.000  O
  O51      1.0000 0.96935  0.94392  0.18709  Biso   1.000  O
  O52      1.0000 0.96740  0.82369  0.43859  Biso   1.000  O
  O53      1.0000 0.77080  0.61897  0.24981  Biso   1.000  O
  O54      1.0000 0.77141  0.63541  0.49758  Biso   1.000  O
  O55      1.0000 0.73622  0.88929  0.49391  Biso   1.000  O
  O56      1.0000 0.73540  0.86678  0.24421  Biso   1.000  O
  Zr29     1.0000 0.63757  0.51663  0.62419  Biso   1.000  Zr
  Zr30     1.0000 0.63862  0.73386  0.87296  Biso   1.000  Zr
  Zr31     1.0000 0.87053  0.76904  0.61907  Biso   1.000  Zr
  Zr32     1.0000 0.87055  0.98358  0.87200  Biso   1.000  Zr
  O57      1.0000 0.53552  0.68124  0.69704  Biso   1.000  O
  O58      1.0000 0.53375  0.57016  0.94856  Biso   1.000  O
  O59      1.0000 0.97031  0.92902  0.69764  Biso   1.000  O
  O60      1.0000 0.97046  0.81526  0.94668  Biso   1.000  O
  O61      1.0000 0.77135  0.61669  0.74843  Biso   1.000  O
  O62      1.0000 0.76940  0.63400  0.00039  Biso   1.000  O
  O63      1.0000 0.73632  0.88206  0.99513  Biso   1.000  O
  O64      1.0000 0.73560  0.86589  0.74495  Biso   1.000  O
  Au1      1.0000 0.07878  0.23981  0.12492  Biso   1.000  Au
