data_image0
_cell_length_a       10.1789
_cell_length_b       5.18034
_cell_length_c       10.6195
_cell_angle_alpha    89.6807
_cell_angle_beta     90.9155
_cell_angle_gamma    89.915

_symmetry_space_group_name_H-M    "P 1"
_symmetry_int_tables_number       1

loop_
  _symmetry_equiv_pos_as_xyz
  'x, y, z'

loop_
  _atom_site_label
  _atom_site_occupancy
  _atom_site_fract_x
  _atom_site_fract_y
  _atom_site_fract_z
  _atom_site_thermal_displace_type
  _atom_site_B_iso_or_equiv
  _atom_site_type_symbol
  Zr1      1.0000 0.13577  0.04019  0.17130  Biso   1.000  Zr
  Zr2      1.0000 0.13640  0.45327  0.42547  Biso   1.000  Zr
  Zr3      1.0000 0.34759  0.53791  0.18552  Biso   1.000  Zr
  Zr4      1.0000 0.36415  0.95562  0.42568  Biso   1.000  Zr
  Zr5      1.0000 0.64267  0.05812  0.07595  Biso   1.000  Zr
  Zr6      1.0000 0.64039  0.45685  0.33289  Biso   1.000  Zr
  Zr7      1.0000 0.86351  0.54320  0.07722  Biso   1.000  Zr
  Zr8      1.0000 0.86261  0.95850  0.32969  Biso   1.000  Zr
  O1       1.0000 0.03248  0.32474  0.08143  Biso   1.000  O
  O2       1.0000 0.03045  0.17516  0.33075  Biso   1.000  O
  O3       1.0000 0.44906  0.88169  0.09948  Biso   1.000  O
  O4       1.0000 0.46839  0.67517  0.33348  Biso   1.000  O
  O5       1.0000 0.26913  0.24927  0.29978  Biso   1.000  O
  O6       1.0000 0.27333  0.24987  0.04680  Biso   1.000  O
  O7       1.0000 0.22163  0.75034  0.30131  Biso   1.000  O
  O8       1.0000 0.22221  0.74632  0.04916  Biso   1.000  O
  O9       1.0000 0.51816  0.28558  0.19694  Biso   1.000  O
  O10      1.0000 0.53030  0.18082  0.42831  Biso   1.000  O
  O11      1.0000 0.96871  0.82541  0.17014  Biso   1.000  O
  O12      1.0000 0.96892  0.67271  0.42030  Biso   1.000  O
  O13      1.0000 0.77553  0.24756  0.45372  Biso   1.000  O
  O14      1.0000 0.77497  0.25923  0.20491  Biso   1.000  O
  O15      1.0000 0.72728  0.74871  0.45749  Biso   1.000  O
  O16      1.0000 0.72874  0.76026  0.21076  Biso   1.000  O
  Zr9      1.0000 0.14266  0.03752  0.67269  Biso   1.000  Zr
  Zr10     1.0000 0.14126  0.45783  0.92265  Biso   1.000  Zr
  Zr11     1.0000 0.36399  0.53816  0.67306  Biso   1.000  Zr
  Zr12     1.0000 0.36054  0.96071  0.92264  Biso   1.000  Zr
  Zr13     1.0000 0.64133  0.03752  0.57821  Biso   1.000  Zr
  Zr14     1.0000 0.64635  0.45086  0.81821  Biso   1.000  Zr
  Zr15     1.0000 0.86518  0.54144  0.57882  Biso   1.000  Zr
  Zr16     1.0000 0.87009  0.95950  0.82726  Biso   1.000  Zr
  O17      1.0000 0.03306  0.32055  0.58172  Biso   1.000  O
  O18      1.0000 0.03925  0.17042  0.83062  Biso   1.000  O
  O19      1.0000 0.47276  0.81676  0.58081  Biso   1.000  O
  O20      1.0000 0.47130  0.67059  0.82676  Biso   1.000  O
  O21      1.0000 0.27938  0.24646  0.79665  Biso   1.000  O
  O22      1.0000 0.27544  0.24533  0.54751  Biso   1.000  O
  O23      1.0000 0.22877  0.74549  0.79733  Biso   1.000  O
  O24      1.0000 0.22843  0.74686  0.54800  Biso   1.000  O
  O25      1.0000 0.53370  0.31764  0.66941  Biso   1.000  O
  O26      1.0000 0.53782  0.13900  0.90918  Biso   1.000  O
  O27      1.0000 0.97421  0.82108  0.66776  Biso   1.000  O
  O28      1.0000 0.97576  0.67289  0.91870  Biso   1.000  O
  O29      1.0000 0.78728  0.25167  0.94665  Biso   1.000  O
  O30      1.0000 0.78029  0.24293  0.69919  Biso   1.000  O
  O31      1.0000 0.74443  0.77109  0.95365  Biso   1.000  O
  O32      1.0000 0.73141  0.74383  0.70476  Biso   1.000  O
  Au1      1.0000 0.56164  0.55775  0.04454  Biso   1.000  Au
