data_image0
_cell_length_a       10.0047
_cell_length_b       5.22151
_cell_length_c       10.0898
_cell_angle_alpha    90.1962
_cell_angle_beta     88.9729
_cell_angle_gamma    89.9014

_symmetry_space_group_name_H-M    "P 1"
_symmetry_int_tables_number       1

loop_
  _symmetry_equiv_pos_as_xyz
  'x, y, z'

loop_
  _atom_site_label
  _atom_site_occupancy
  _atom_site_fract_x
  _atom_site_fract_y
  _atom_site_fract_z
  _atom_site_thermal_displace_type
  _atom_site_B_iso_or_equiv
  _atom_site_type_symbol
  Au1      1.0000 0.12053  0.05206  0.10445  Biso   1.000  Au
  Zr1      1.0000 0.14085  0.46329  0.37994  Biso   1.000  Zr
  Zr2      1.0000 0.36627  0.53207  0.13461  Biso   1.000  Zr
  Zr3      1.0000 0.36286  0.96675  0.37869  Biso   1.000  Zr
  O1       1.0000 0.03839  0.35993  0.19041  Biso   1.000  O
  O2       1.0000 0.03845  0.12848  0.44848  Biso   1.000  O
  O3       1.0000 0.46984  0.86350  0.19856  Biso   1.000  O
  O4       1.0000 0.46826  0.63619  0.45165  Biso   1.000  O
  O5       1.0000 0.28164  0.24486  0.25840  Biso   1.000  O
  O6       1.0000 0.27135  0.26282  0.50690  Biso   1.000  O
  O7       1.0000 0.22893  0.76355  0.50801  Biso   1.000  O
  O8       1.0000 0.24103  0.72062  0.26261  Biso   1.000  O
  Zr4      1.0000 0.13333  0.03761  0.63346  Biso   1.000  Zr
  Zr5      1.0000 0.13205  0.47857  0.87517  Biso   1.000  Zr
  Zr6      1.0000 0.36646  0.53467  0.62985  Biso   1.000  Zr
  Zr7      1.0000 0.36505  0.96951  0.88038  Biso   1.000  Zr
  O9       1.0000 0.03956  0.38477  0.68844  Biso   1.000  O
  O10      1.0000 0.03638  0.12649  0.90221  Biso   1.000  O
  O11      1.0000 0.46340  0.87041  0.69908  Biso   1.000  O
  O12      1.0000 0.45303  0.62254  0.94212  Biso   1.000  O
  O13      1.0000 0.27288  0.24304  0.75577  Biso   1.000  O
  O14      1.0000 0.26057  0.26288  0.00672  Biso   1.000  O
  O15      1.0000 0.22372  0.76951  0.01062  Biso   1.000  O
  O16      1.0000 0.22886  0.74287  0.75591  Biso   1.000  O
  Zr8      1.0000 0.63639  0.03170  0.12941  Biso   1.000  Zr
  Zr9      1.0000 0.63517  0.47054  0.37539  Biso   1.000  Zr
  Zr10     1.0000 0.86530  0.52968  0.12230  Biso   1.000  Zr
  Zr11     1.0000 0.87323  0.97131  0.37497  Biso   1.000  Zr
  O17      1.0000 0.54193  0.37240  0.19361  Biso   1.000  O
  O18      1.0000 0.53651  0.13445  0.44337  Biso   1.000  O
  O19      1.0000 0.97002  0.86185  0.18833  Biso   1.000  O
  O20      1.0000 0.96405  0.62660  0.43668  Biso   1.000  O
  O21      1.0000 0.77380  0.23357  0.24819  Biso   1.000  O
  O22      1.0000 0.76949  0.26677  0.49658  Biso   1.000  O
  O23      1.0000 0.73311  0.76835  0.49719  Biso   1.000  O
  O24      1.0000 0.73751  0.73648  0.24841  Biso   1.000  O
  Zr12     1.0000 0.63122  0.03127  0.62168  Biso   1.000  Zr
  Zr13     1.0000 0.63034  0.46297  0.87613  Biso   1.000  Zr
  Zr14     1.0000 0.86570  0.53000  0.61988  Biso   1.000  Zr
  Zr15     1.0000 0.85701  0.95979  0.86821  Biso   1.000  Zr
  O25      1.0000 0.53529  0.36758  0.69603  Biso   1.000  O
  O26      1.0000 0.53382  0.12899  0.94852  Biso   1.000  O
  O27      1.0000 0.95813  0.86974  0.68488  Biso   1.000  O
  O28      1.0000 0.95952  0.63154  0.94075  Biso   1.000  O
  O29      1.0000 0.76660  0.23246  0.74616  Biso   1.000  O
  O30      1.0000 0.77204  0.25794  0.99662  Biso   1.000  O
  O31      1.0000 0.72348  0.75539  0.99908  Biso   1.000  O
  O32      1.0000 0.72690  0.72980  0.74753  Biso   1.000  O
