data_image0
_cell_length_a       10.1209
_cell_length_b       10.3138
_cell_length_c       5.28965
_cell_angle_alpha    89.855
_cell_angle_beta     90.7858
_cell_angle_gamma    89.8795

_symmetry_space_group_name_H-M    "P 1"
_symmetry_int_tables_number       1

loop_
  _symmetry_equiv_pos_as_xyz
  'x, y, z'

loop_
  _atom_site_label
  _atom_site_occupancy
  _atom_site_fract_x
  _atom_site_fract_y
  _atom_site_fract_z
  _atom_site_thermal_displace_type
  _atom_site_B_iso_or_equiv
  _atom_site_type_symbol
  Zr1      1.0000 0.14002  0.02106  0.34814  Biso   1.000  Zr
  Zr2      1.0000 0.13741  0.22391  0.85290  Biso   1.000  Zr
  Zr3      1.0000 0.34596  0.27564  0.36486  Biso   1.000  Zr
  Zr4      1.0000 0.35912  0.47862  0.83843  Biso   1.000  Zr
  Zr5      1.0000 0.64491  0.02772  0.14998  Biso   1.000  Zr
  Zr6      1.0000 0.64013  0.23002  0.69959  Biso   1.000  Zr
  Zr7      1.0000 0.85500  0.26584  0.14632  Biso   1.000  Zr
  Zr8      1.0000 0.87360  0.48298  0.65629  Biso   1.000  Zr
  O1       1.0000 0.03281  0.16470  0.17434  Biso   1.000  O
  O2       1.0000 0.03505  0.08242  0.66631  Biso   1.000  O
  O3       1.0000 0.49320  0.37561  0.13483  Biso   1.000  O
  O4       1.0000 0.46520  0.33888  0.66227  Biso   1.000  O
  O5       1.0000 0.27817  0.12391  0.59757  Biso   1.000  O
  O6       1.0000 0.27772  0.12546  0.10187  Biso   1.000  O
  O7       1.0000 0.21082  0.37213  0.60558  Biso   1.000  O
  O8       1.0000 0.22399  0.37816  0.09365  Biso   1.000  O
  O9       1.0000 0.53214  0.17572  0.34640  Biso   1.000  O
  O10      1.0000 0.53330  0.08020  0.82952  Biso   1.000  O
  O11      1.0000 0.95697  0.41518  0.33545  Biso   1.000  O
  O12      1.0000 0.96811  0.33285  0.83778  Biso   1.000  O
  O13      1.0000 0.79208  0.11492  0.90125  Biso   1.000  O
  O14      1.0000 0.77518  0.12455  0.41908  Biso   1.000  O
  O15      1.0000 0.73285  0.38898  0.88033  Biso   1.000  O
  O16      1.0000 0.69225  0.35749  0.36206  Biso   1.000  O
  Zr9      1.0000 0.14083  0.52071  0.34187  Biso   1.000  Zr
  Zr10     1.0000 0.14385  0.72882  0.85049  Biso   1.000  Zr
  Zr11     1.0000 0.36232  0.77422  0.34945  Biso   1.000  Zr
  Zr12     1.0000 0.36197  0.97774  0.85362  Biso   1.000  Zr
  Zr13     1.0000 0.64315  0.53233  0.14271  Biso   1.000  Zr
  Zr14     1.0000 0.63998  0.73097  0.65272  Biso   1.000  Zr
  Zr15     1.0000 0.86470  0.77312  0.15465  Biso   1.000  Zr
  Zr16     1.0000 0.86388  0.97566  0.65270  Biso   1.000  Zr
  O17      1.0000 0.03393  0.66177  0.16640  Biso   1.000  O
  O18      1.0000 0.03525  0.58752  0.66827  Biso   1.000  O
  O19      1.0000 0.47219  0.91626  0.17265  Biso   1.000  O
  O20      1.0000 0.46965  0.83517  0.66975  Biso   1.000  O
  O21      1.0000 0.27574  0.62392  0.59170  Biso   1.000  O
  O22      1.0000 0.28022  0.62696  0.09782  Biso   1.000  O
  O23      1.0000 0.22620  0.87390  0.59957  Biso   1.000  O
  O24      1.0000 0.22565  0.87606  0.09715  Biso   1.000  O
  O25      1.0000 0.52911  0.65741  0.34235  Biso   1.000  O
  O26      1.0000 0.52804  0.59028  0.84614  Biso   1.000  O
  O27      1.0000 0.97139  0.91259  0.33311  Biso   1.000  O
  O28      1.0000 0.97091  0.83323  0.83773  Biso   1.000  O
  O29      1.0000 0.77615  0.63041  0.90450  Biso   1.000  O
  O30      1.0000 0.77532  0.62133  0.40487  Biso   1.000  O
  O31      1.0000 0.72602  0.87549  0.90908  Biso   1.000  O
  O32      1.0000 0.72746  0.87224  0.40652  Biso   1.000  O
  B1       1.0000 0.59484  0.27692  0.19993  Biso   1.000  B
