data_image0
_cell_length_a       10.2676
_cell_length_b       5.12504
_cell_length_c       10.5421
_cell_angle_alpha    90.0578
_cell_angle_beta     80.2146
_cell_angle_gamma    90.1678

_symmetry_space_group_name_H-M    "P 1"
_symmetry_int_tables_number       1

loop_
  _symmetry_equiv_pos_as_xyz
  'x, y, z'

loop_
  _atom_site_label
  _atom_site_occupancy
  _atom_site_fract_x
  _atom_site_fract_y
  _atom_site_fract_z
  _atom_site_thermal_displace_type
  _atom_site_B_iso_or_equiv
  _atom_site_type_symbol
  B1       1.0000 0.02053  0.12134  0.17323  Biso   1.000  B
  Zr1      1.0000 0.14113  0.03783  0.64369  Biso   1.000  Zr
  Zr2      1.0000 0.63856  0.04731  0.14640  Biso   1.000  Zr
  Zr3      1.0000 0.63903  0.03762  0.64969  Biso   1.000  Zr
  Zr4      1.0000 0.14589  0.45227  0.38894  Biso   1.000  Zr
  Zr5      1.0000 0.14642  0.45391  0.89612  Biso   1.000  Zr
  Zr6      1.0000 0.63720  0.45461  0.39725  Biso   1.000  Zr
  Zr7      1.0000 0.64020  0.45795  0.89678  Biso   1.000  Zr
  Zr8      1.0000 0.35572  0.53814  0.10510  Biso   1.000  Zr
  Zr9      1.0000 0.36250  0.53971  0.60370  Biso   1.000  Zr
  Zr10     1.0000 0.86017  0.55280  0.10329  Biso   1.000  Zr
  Zr11     1.0000 0.86587  0.53473  0.60441  Biso   1.000  Zr
  Zr12     1.0000 0.35887  0.95496  0.34921  Biso   1.000  Zr
  Zr13     1.0000 0.36016  0.95432  0.85837  Biso   1.000  Zr
  Zr14     1.0000 0.85573  0.95211  0.36314  Biso   1.000  Zr
  Zr15     1.0000 0.86682  0.95620  0.85479  Biso   1.000  Zr
  O1       1.0000 0.03083  0.31189  0.08185  Biso   1.000  O
  O2       1.0000 0.02923  0.29955  0.56164  Biso   1.000  O
  O3       1.0000 0.53568  0.32899  0.07723  Biso   1.000  O
  O4       1.0000 0.53410  0.32308  0.57788  Biso   1.000  O
  O5       1.0000 0.02862  0.18660  0.29936  Biso   1.000  O
  O6       1.0000 0.03378  0.17686  0.82088  Biso   1.000  O
  O7       1.0000 0.53659  0.16496  0.32823  Biso   1.000  O
  O8       1.0000 0.53630  0.17170  0.82748  Biso   1.000  O
  O9       1.0000 0.47356  0.82009  0.17427  Biso   1.000  O
  O10      1.0000 0.46964  0.82118  0.67647  Biso   1.000  O
  O11      1.0000 0.96332  0.88063  0.16499  Biso   1.000  O
  O12      1.0000 0.97259  0.81022  0.67674  Biso   1.000  O
  O13      1.0000 0.47012  0.67158  0.42552  Biso   1.000  O
  O14      1.0000 0.47715  0.68373  0.92647  Biso   1.000  O
  O15      1.0000 0.97010  0.67521  0.41996  Biso   1.000  O
  O16      1.0000 0.97158  0.66889  0.92899  Biso   1.000  O
  O17      1.0000 0.28728  0.26083  0.24836  Biso   1.000  O
  O18      1.0000 0.27652  0.25038  0.73790  Biso   1.000  O
  O19      1.0000 0.77644  0.26342  0.24100  Biso   1.000  O
  O20      1.0000 0.77901  0.25212  0.74029  Biso   1.000  O
  O21      1.0000 0.27539  0.23932  0.49166  Biso   1.000  O
  O22      1.0000 0.28647  0.25501  0.98034  Biso   1.000  O
  O23      1.0000 0.77446  0.23752  0.49152  Biso   1.000  O
  O24      1.0000 0.77979  0.25067  0.99160  Biso   1.000  O
  O25      1.0000 0.23485  0.73922  0.99908  Biso   1.000  O
  O26      1.0000 0.22511  0.74898  0.50792  Biso   1.000  O
  O27      1.0000 0.72941  0.76164  0.01174  Biso   1.000  O
  O28      1.0000 0.72688  0.74789  0.51412  Biso   1.000  O
  O29      1.0000 0.23314  0.72748  0.26160  Biso   1.000  O
  O30      1.0000 0.22615  0.73747  0.75659  Biso   1.000  O
  O31      1.0000 0.73099  0.74565  0.26267  Biso   1.000  O
  O32      1.0000 0.73013  0.74145  0.76152  Biso   1.000  O
