data_image0
_cell_length_a       10.1208
_cell_length_b       10.2689
_cell_length_c       10.1208
_cell_angle_alpha    89.9995
_cell_angle_beta     89.9994
_cell_angle_gamma    90.0002

_symmetry_space_group_name_H-M    "P 1"
_symmetry_int_tables_number       1

loop_
  _symmetry_equiv_pos_as_xyz
  'x, y, z'

loop_
  _atom_site_label
  _atom_site_occupancy
  _atom_site_fract_x
  _atom_site_fract_y
  _atom_site_fract_z
  _atom_site_thermal_displace_type
  _atom_site_B_iso_or_equiv
  _atom_site_type_symbol
  Ba1      1.0000 0.12600  0.00035  0.12600  Biso   1.000  Ba
  Zr1      1.0000 0.12599  0.00035  0.62600  Biso   1.000  Zr
  Zr2      1.0000 0.12600  0.50035  0.12600  Biso   1.000  Zr
  Zr3      1.0000 0.12600  0.50035  0.62600  Biso   1.000  Zr
  Zr4      1.0000 0.62599  0.00035  0.12600  Biso   1.000  Zr
  Zr5      1.0000 0.62599  0.00035  0.62600  Biso   1.000  Zr
  Zr6      1.0000 0.62600  0.50035  0.12600  Biso   1.000  Zr
  Zr7      1.0000 0.62600  0.50035  0.62600  Biso   1.000  Zr
  Zr8      1.0000 0.12393  0.25355  0.37882  Biso   1.000  Zr
  Zr9      1.0000 0.12806  0.25355  0.87318  Biso   1.000  Zr
  Zr10     1.0000 0.12807  0.74715  0.37882  Biso   1.000  Zr
  Zr11     1.0000 0.12393  0.74715  0.87318  Biso   1.000  Zr
  Zr12     1.0000 0.62589  0.25037  0.37605  Biso   1.000  Zr
  Zr13     1.0000 0.62611  0.25038  0.87596  Biso   1.000  Zr
  Zr14     1.0000 0.62611  0.75033  0.37604  Biso   1.000  Zr
  Zr15     1.0000 0.62588  0.75033  0.87595  Biso   1.000  Zr
  Zr16     1.0000 0.37881  0.25355  0.12394  Biso   1.000  Zr
  Zr17     1.0000 0.37604  0.25037  0.62589  Biso   1.000  Zr
  Zr18     1.0000 0.37882  0.74715  0.12807  Biso   1.000  Zr
  Zr19     1.0000 0.37604  0.75033  0.62611  Biso   1.000  Zr
  Zr20     1.0000 0.87318  0.25355  0.12807  Biso   1.000  Zr
  Zr21     1.0000 0.87595  0.25038  0.62611  Biso   1.000  Zr
  Zr22     1.0000 0.87318  0.74716  0.12393  Biso   1.000  Zr
  Zr23     1.0000 0.87595  0.75033  0.62588  Biso   1.000  Zr
  Zr24     1.0000 0.37865  0.00350  0.37866  Biso   1.000  Zr
  Zr25     1.0000 0.37865  0.99720  0.87334  Biso   1.000  Zr
  Zr26     1.0000 0.37672  0.49957  0.37672  Biso   1.000  Zr
  Zr27     1.0000 0.37672  0.50113  0.87528  Biso   1.000  Zr
  Zr28     1.0000 0.87334  0.99720  0.37866  Biso   1.000  Zr
  Zr29     1.0000 0.87334  0.00350  0.87334  Biso   1.000  Zr
  Zr30     1.0000 0.87528  0.50113  0.37672  Biso   1.000  Zr
  Zr31     1.0000 0.87528  0.49958  0.87528  Biso   1.000  Zr
  O1       1.0000 0.99345  0.15725  0.99346  Biso   1.000  O
  O2       1.0000 0.00863  0.14902  0.51196  Biso   1.000  O
  O3       1.0000 0.00518  0.64278  0.00518  Biso   1.000  O
  O4       1.0000 0.00203  0.64566  0.50541  Biso   1.000  O
  O5       1.0000 0.51196  0.14902  0.00863  Biso   1.000  O
  O6       1.0000 0.50517  0.14763  0.50518  Biso   1.000  O
  O7       1.0000 0.50541  0.64566  0.00203  Biso   1.000  O
  O8       1.0000 0.50165  0.64729  0.50165  Biso   1.000  O
  O9       1.0000 0.98296  0.12322  0.26904  Biso   1.000  O
  O10      1.0000 0.99801  0.10263  0.75280  Biso   1.000  O
  O11      1.0000 0.99875  0.60139  0.25323  Biso   1.000  O
  O12      1.0000 0.00102  0.60328  0.75420  Biso   1.000  O
  O13      1.0000 0.49920  0.10263  0.25399  Biso   1.000  O
  O14      1.0000 0.49940  0.10403  0.75260  Biso   1.000  O
  O15      1.0000 0.49779  0.60327  0.25097  Biso   1.000  O
  O16      1.0000 0.50070  0.60346  0.75129  Biso   1.000  O
  O17      1.0000 0.00518  0.35792  0.24682  Biso   1.000  O
  O18      1.0000 0.00204  0.35504  0.74658  Biso   1.000  O
  O19      1.0000 0.99345  0.84345  0.25854  Biso   1.000  O
  O20      1.0000 0.00862  0.85168  0.74004  Biso   1.000  O
  O21      1.0000 0.50542  0.35504  0.24996  Biso   1.000  O
  O22      1.0000 0.50166  0.35341  0.75034  Biso   1.000  O
  O23      1.0000 0.51196  0.85168  0.24337  Biso   1.000  O
  O24      1.0000 0.50517  0.85307  0.74682  Biso   1.000  O
  O25      1.0000 0.99876  0.39931  0.99876  Biso   1.000  O
  O26      1.0000 0.00102  0.39743  0.49780  Biso   1.000  O
  O27      1.0000 0.98296  0.87748  0.98296  Biso   1.000  O
  O28      1.0000 0.99800  0.89807  0.49920  Biso   1.000  O
  O29      1.0000 0.49780  0.39743  0.00102  Biso   1.000  O
  O30      1.0000 0.50070  0.39724  0.50071  Biso   1.000  O
  O31      1.0000 0.49920  0.89807  0.99801  Biso   1.000  O
  O32      1.0000 0.49940  0.89667  0.49940  Biso   1.000  O
  O33      1.0000 0.25854  0.15724  0.25854  Biso   1.000  O
  O34      1.0000 0.24337  0.14902  0.74004  Biso   1.000  O
  O35      1.0000 0.24681  0.64278  0.24681  Biso   1.000  O
  O36      1.0000 0.24996  0.64566  0.74658  Biso   1.000  O
  O37      1.0000 0.74003  0.14902  0.24337  Biso   1.000  O
  O38      1.0000 0.74682  0.14763  0.74682  Biso   1.000  O
  O39      1.0000 0.74657  0.64566  0.24996  Biso   1.000  O
  O40      1.0000 0.75034  0.64729  0.75034  Biso   1.000  O
  O41      1.0000 0.26903  0.12322  0.98297  Biso   1.000  O
  O42      1.0000 0.25399  0.10263  0.49920  Biso   1.000  O
  O43      1.0000 0.25323  0.60139  0.99876  Biso   1.000  O
  O44      1.0000 0.25097  0.60328  0.49780  Biso   1.000  O
  O45      1.0000 0.75280  0.10263  0.99801  Biso   1.000  O
  O46      1.0000 0.75259  0.10403  0.49941  Biso   1.000  O
  O47      1.0000 0.75419  0.60328  0.00102  Biso   1.000  O
  O48      1.0000 0.75129  0.60346  0.50071  Biso   1.000  O
  O49      1.0000 0.24681  0.35792  0.00518  Biso   1.000  O
  O50      1.0000 0.24996  0.35504  0.50542  Biso   1.000  O
  O51      1.0000 0.25854  0.84345  0.99345  Biso   1.000  O
  O52      1.0000 0.24336  0.85168  0.51196  Biso   1.000  O
  O53      1.0000 0.74658  0.35504  0.00204  Biso   1.000  O
  O54      1.0000 0.75034  0.35341  0.50166  Biso   1.000  O
  O55      1.0000 0.74004  0.85168  0.00863  Biso   1.000  O
  O56      1.0000 0.74682  0.85307  0.50517  Biso   1.000  O
  O57      1.0000 0.25324  0.39931  0.25324  Biso   1.000  O
  O58      1.0000 0.25098  0.39742  0.75420  Biso   1.000  O
  O59      1.0000 0.26903  0.87748  0.26903  Biso   1.000  O
  O60      1.0000 0.25398  0.89807  0.75280  Biso   1.000  O
  O61      1.0000 0.75419  0.39742  0.25098  Biso   1.000  O
  O62      1.0000 0.75129  0.39724  0.75130  Biso   1.000  O
  O63      1.0000 0.75280  0.89807  0.25399  Biso   1.000  O
  O64      1.0000 0.75259  0.89667  0.75259  Biso   1.000  O
