data_image0
_cell_length_a       10.2223
_cell_length_b       10.397
_cell_length_c       5.26496
_cell_angle_alpha    90.0137
_cell_angle_beta     80.6132
_cell_angle_gamma    90.0151

_symmetry_space_group_name_H-M    "P 1"
_symmetry_int_tables_number       1

loop_
  _symmetry_equiv_pos_as_xyz
  'x, y, z'

loop_
  _atom_site_label
  _atom_site_occupancy
  _atom_site_fract_x
  _atom_site_fract_y
  _atom_site_fract_z
  _atom_site_thermal_displace_type
  _atom_site_B_iso_or_equiv
  _atom_site_type_symbol
  Bi1      1.0000 0.13433  0.01784  0.29260  Biso   1.000  Bi
  Zr1      1.0000 0.13842  0.52123  0.28965  Biso   1.000  Zr
  Zr2      1.0000 0.63922  0.02158  0.29244  Biso   1.000  Zr
  Zr3      1.0000 0.63863  0.51988  0.29076  Biso   1.000  Zr
  Zr4      1.0000 0.13985  0.23162  0.78953  Biso   1.000  Zr
  Zr5      1.0000 0.13821  0.72686  0.79069  Biso   1.000  Zr
  Zr6      1.0000 0.63843  0.22925  0.79174  Biso   1.000  Zr
  Zr7      1.0000 0.63863  0.72730  0.78899  Biso   1.000  Zr
  Zr8      1.0000 0.36213  0.27186  0.20764  Biso   1.000  Zr
  Zr9      1.0000 0.36451  0.76908  0.20802  Biso   1.000  Zr
  Zr10     1.0000 0.85949  0.27272  0.21011  Biso   1.000  Zr
  Zr11     1.0000 0.85881  0.76796  0.20720  Biso   1.000  Zr
  Zr12     1.0000 0.36123  0.47878  0.70787  Biso   1.000  Zr
  Zr13     1.0000 0.36439  0.97856  0.70747  Biso   1.000  Zr
  Zr14     1.0000 0.86155  0.47833  0.70810  Biso   1.000  Zr
  Zr15     1.0000 0.85610  0.97819  0.71829  Biso   1.000  Zr
  O1       1.0000 0.03662  0.18095  0.15967  Biso   1.000  O
  O2       1.0000 0.03641  0.67215  0.16366  Biso   1.000  O
  O3       1.0000 0.53601  0.16947  0.16086  Biso   1.000  O
  O4       1.0000 0.53689  0.66762  0.15945  Biso   1.000  O
  O5       1.0000 0.03189  0.08026  0.67814  Biso   1.000  O
  O6       1.0000 0.03579  0.57936  0.66046  Biso   1.000  O
  O7       1.0000 0.53846  0.07969  0.66108  Biso   1.000  O
  O8       1.0000 0.53508  0.58049  0.65873  Biso   1.000  O
  O9       1.0000 0.46491  0.41863  0.33996  Biso   1.000  O
  O10      1.0000 0.46540  0.91946  0.33845  Biso   1.000  O
  O11      1.0000 0.96218  0.42289  0.33647  Biso   1.000  O
  O12      1.0000 0.94863  0.92151  0.34269  Biso   1.000  O
  O13      1.0000 0.46555  0.33169  0.83948  Biso   1.000  O
  O14      1.0000 0.46807  0.83069  0.84103  Biso   1.000  O
  O15      1.0000 0.96322  0.33157  0.83753  Biso   1.000  O
  O16      1.0000 0.96421  0.83033  0.83923  Biso   1.000  O
  O17      1.0000 0.27997  0.13237  0.48714  Biso   1.000  O
  O18      1.0000 0.27600  0.62680  0.47913  Biso   1.000  O
  O19      1.0000 0.77582  0.13023  0.48374  Biso   1.000  O
  O20      1.0000 0.77481  0.62815  0.47963  Biso   1.000  O
  O21      1.0000 0.28136  0.12515  0.96729  Biso   1.000  O
  O22      1.0000 0.27549  0.61985  0.98027  Biso   1.000  O
  O23      1.0000 0.77466  0.12136  0.98471  Biso   1.000  O
  O24      1.0000 0.77574  0.62008  0.97936  Biso   1.000  O
  O25      1.0000 0.22516  0.38006  0.01679  Biso   1.000  O
  O26      1.0000 0.23188  0.87295  0.00513  Biso   1.000  O
  O27      1.0000 0.72371  0.37904  0.01891  Biso   1.000  O
  O28      1.0000 0.72318  0.87808  0.02075  Biso   1.000  O
  O29      1.0000 0.22409  0.37211  0.51610  Biso   1.000  O
  O30      1.0000 0.22961  0.86487  0.52181  Biso   1.000  O
  O31      1.0000 0.72381  0.37133  0.51950  Biso   1.000  O
  O32      1.0000 0.72150  0.86973  0.52173  Biso   1.000  O
