data_image0
_cell_length_a       10.0833
_cell_length_b       10.2495
_cell_length_c       10.0833
_cell_angle_alpha    90.0028
_cell_angle_beta     90.0011
_cell_angle_gamma    90.0019

_symmetry_space_group_name_H-M    "P 1"
_symmetry_int_tables_number       1

loop_
  _symmetry_equiv_pos_as_xyz
  'x, y, z'

loop_
  _atom_site_label
  _atom_site_occupancy
  _atom_site_fract_x
  _atom_site_fract_y
  _atom_site_fract_z
  _atom_site_thermal_displace_type
  _atom_site_B_iso_or_equiv
  _atom_site_type_symbol
  Bi1      1.0000 0.12522  0.00005  0.12523  Biso   1.000  Bi
  Zr1      1.0000 0.12522  0.00005  0.62524  Biso   1.000  Zr
  Zr2      1.0000 0.12522  0.50004  0.12524  Biso   1.000  Zr
  Zr3      1.0000 0.12522  0.50005  0.62524  Biso   1.000  Zr
  Zr4      1.0000 0.62522  0.00004  0.12524  Biso   1.000  Zr
  Zr5      1.0000 0.62523  0.00004  0.62524  Biso   1.000  Zr
  Zr6      1.0000 0.62522  0.50005  0.12524  Biso   1.000  Zr
  Zr7      1.0000 0.62522  0.50005  0.62524  Biso   1.000  Zr
  Zr8      1.0000 0.12471  0.25185  0.37649  Biso   1.000  Zr
  Zr9      1.0000 0.12572  0.25185  0.87397  Biso   1.000  Zr
  Zr10     1.0000 0.12572  0.74823  0.37649  Biso   1.000  Zr
  Zr11     1.0000 0.12471  0.74824  0.87398  Biso   1.000  Zr
  Zr12     1.0000 0.62535  0.25007  0.37505  Biso   1.000  Zr
  Zr13     1.0000 0.62507  0.25007  0.87541  Biso   1.000  Zr
  Zr14     1.0000 0.62507  0.75001  0.37506  Biso   1.000  Zr
  Zr15     1.0000 0.62536  0.75001  0.87541  Biso   1.000  Zr
  Zr16     1.0000 0.37647  0.25185  0.12473  Biso   1.000  Zr
  Zr17     1.0000 0.37504  0.25007  0.62537  Biso   1.000  Zr
  Zr18     1.0000 0.37647  0.74824  0.12573  Biso   1.000  Zr
  Zr19     1.0000 0.37503  0.75002  0.62509  Biso   1.000  Zr
  Zr20     1.0000 0.87395  0.25185  0.12573  Biso   1.000  Zr
  Zr21     1.0000 0.87539  0.25007  0.62508  Biso   1.000  Zr
  Zr22     1.0000 0.87396  0.74824  0.12473  Biso   1.000  Zr
  Zr23     1.0000 0.87539  0.75001  0.62538  Biso   1.000  Zr
  Zr24     1.0000 0.37706  0.00181  0.37707  Biso   1.000  Zr
  Zr25     1.0000 0.37706  0.99827  0.87340  Biso   1.000  Zr
  Zr26     1.0000 0.37537  0.49987  0.37538  Biso   1.000  Zr
  Zr27     1.0000 0.37537  0.50023  0.87509  Biso   1.000  Zr
  Zr28     1.0000 0.87338  0.99827  0.37708  Biso   1.000  Zr
  Zr29     1.0000 0.87339  0.00181  0.87340  Biso   1.000  Zr
  Zr30     1.0000 0.87508  0.50022  0.37538  Biso   1.000  Zr
  Zr31     1.0000 0.87507  0.49986  0.87509  Biso   1.000  Zr
  O1       1.0000 0.99624  0.15027  0.99625  Biso   1.000  O
  O2       1.0000 0.00182  0.14724  0.50265  Biso   1.000  O
  O3       1.0000 0.00114  0.64532  0.00116  Biso   1.000  O
  O4       1.0000 0.00020  0.64598  0.50175  Biso   1.000  O
  O5       1.0000 0.50263  0.14724  0.00183  Biso   1.000  O
  O6       1.0000 0.50117  0.14701  0.50119  Biso   1.000  O
  O7       1.0000 0.50174  0.64598  0.00021  Biso   1.000  O
  O8       1.0000 0.49999  0.64696  0.50000  Biso   1.000  O
  O9       1.0000 0.99464  0.11042  0.25582  Biso   1.000  O
  O10      1.0000 0.99920  0.10315  0.74988  Biso   1.000  O
  O11      1.0000 0.99958  0.60263  0.25086  Biso   1.000  O
  O12      1.0000 0.00057  0.60325  0.75120  Biso   1.000  O
  O13      1.0000 0.50057  0.10315  0.25125  Biso   1.000  O
  O14      1.0000 0.50019  0.10334  0.75027  Biso   1.000  O
  O15      1.0000 0.49924  0.60325  0.24988  Biso   1.000  O
  O16      1.0000 0.50030  0.60318  0.75015  Biso   1.000  O
  O17      1.0000 0.00115  0.35477  0.24931  Biso   1.000  O
  O18      1.0000 0.00020  0.35411  0.74872  Biso   1.000  O
  O19      1.0000 0.99623  0.84982  0.25422  Biso   1.000  O
  O20      1.0000 0.00181  0.85284  0.74783  Biso   1.000  O
  O21      1.0000 0.50174  0.35411  0.25025  Biso   1.000  O
  O22      1.0000 0.49999  0.35312  0.75047  Biso   1.000  O
  O23      1.0000 0.50262  0.85284  0.24865  Biso   1.000  O
  O24      1.0000 0.50117  0.85308  0.74929  Biso   1.000  O
  O25      1.0000 0.99958  0.39746  0.99960  Biso   1.000  O
  O26      1.0000 0.00057  0.39684  0.49926  Biso   1.000  O
  O27      1.0000 0.99464  0.88966  0.99465  Biso   1.000  O
  O28      1.0000 0.99920  0.89694  0.50059  Biso   1.000  O
  O29      1.0000 0.49924  0.39684  0.00058  Biso   1.000  O
  O30      1.0000 0.50030  0.39691  0.50032  Biso   1.000  O
  O31      1.0000 0.50058  0.89694  0.99922  Biso   1.000  O
  O32      1.0000 0.50018  0.89675  0.50020  Biso   1.000  O
  O33      1.0000 0.25420  0.15027  0.25422  Biso   1.000  O
  O34      1.0000 0.24863  0.14724  0.74783  Biso   1.000  O
  O35      1.0000 0.24929  0.64532  0.24931  Biso   1.000  O
  O36      1.0000 0.25023  0.64598  0.74871  Biso   1.000  O
  O37      1.0000 0.74781  0.14724  0.24865  Biso   1.000  O
  O38      1.0000 0.74927  0.14701  0.74929  Biso   1.000  O
  O39      1.0000 0.74870  0.64598  0.25025  Biso   1.000  O
  O40      1.0000 0.75045  0.64697  0.75047  Biso   1.000  O
  O41      1.0000 0.25580  0.11042  0.99465  Biso   1.000  O
  O42      1.0000 0.25124  0.10315  0.50059  Biso   1.000  O
  O43      1.0000 0.25085  0.60263  0.99960  Biso   1.000  O
  O44      1.0000 0.24986  0.60325  0.49926  Biso   1.000  O
  O45      1.0000 0.74987  0.10315  0.99922  Biso   1.000  O
  O46      1.0000 0.75026  0.10334  0.50020  Biso   1.000  O
  O47      1.0000 0.75119  0.60325  0.00058  Biso   1.000  O
  O48      1.0000 0.75013  0.60318  0.50032  Biso   1.000  O
  O49      1.0000 0.24929  0.35477  0.00116  Biso   1.000  O
  O50      1.0000 0.25024  0.35411  0.50175  Biso   1.000  O
  O51      1.0000 0.25421  0.84982  0.99624  Biso   1.000  O
  O52      1.0000 0.24863  0.85285  0.50263  Biso   1.000  O
  O53      1.0000 0.74870  0.35411  0.00021  Biso   1.000  O
  O54      1.0000 0.75046  0.35312  0.49999  Biso   1.000  O
  O55      1.0000 0.74782  0.85285  0.00183  Biso   1.000  O
  O56      1.0000 0.74927  0.85308  0.50119  Biso   1.000  O
  O57      1.0000 0.25085  0.39746  0.25087  Biso   1.000  O
  O58      1.0000 0.24986  0.39684  0.75121  Biso   1.000  O
  O59      1.0000 0.25580  0.88966  0.25581  Biso   1.000  O
  O60      1.0000 0.25124  0.89694  0.74987  Biso   1.000  O
  O61      1.0000 0.75120  0.39684  0.24987  Biso   1.000  O
  O62      1.0000 0.75013  0.39691  0.75014  Biso   1.000  O
  O63      1.0000 0.74986  0.89694  0.25125  Biso   1.000  O
  O64      1.0000 0.75026  0.89674  0.75027  Biso   1.000  O
