data_image0
_cell_length_a       10.0728
_cell_length_b       10.0728
_cell_length_c       5.03456
_cell_angle_alpha    89.9953
_cell_angle_beta     89.9947
_cell_angle_gamma    87.944

_symmetry_space_group_name_H-M    "P 1"
_symmetry_int_tables_number       1

loop_
  _symmetry_equiv_pos_as_xyz
  'x, y, z'

loop_
  _atom_site_label
  _atom_site_occupancy
  _atom_site_fract_x
  _atom_site_fract_y
  _atom_site_fract_z
  _atom_site_thermal_displace_type
  _atom_site_B_iso_or_equiv
  _atom_site_type_symbol
  C1       1.0000 0.12487  0.00016  0.20226  Biso   1.000  C
  Zr1      1.0000 0.12491  0.50017  0.26154  Biso   1.000  Zr
  Zr2      1.0000 0.62488  0.00022  0.26153  Biso   1.000  Zr
  Zr3      1.0000 0.62493  0.50022  0.25709  Biso   1.000  Zr
  Zr4      1.0000 0.13033  0.25233  0.76498  Biso   1.000  Zr
  Zr5      1.0000 0.11950  0.74806  0.76491  Biso   1.000  Zr
  Zr6      1.0000 0.63173  0.25376  0.75951  Biso   1.000  Zr
  Zr7      1.0000 0.61809  0.74669  0.75946  Biso   1.000  Zr
  Zr8      1.0000 0.37810  0.25340  0.28736  Biso   1.000  Zr
  Zr9      1.0000 0.36076  0.76437  0.23840  Biso   1.000  Zr
  Zr10     1.0000 0.88907  0.23605  0.23840  Biso   1.000  Zr
  Zr11     1.0000 0.87177  0.74708  0.28724  Biso   1.000  Zr
  Zr12     1.0000 0.37703  0.00563  0.76498  Biso   1.000  Zr
  Zr13     1.0000 0.37846  0.50704  0.75950  Biso   1.000  Zr
  Zr14     1.0000 0.87276  0.99481  0.76491  Biso   1.000  Zr
  Zr15     1.0000 0.87138  0.49341  0.75949  Biso   1.000  Zr
  O1       1.0000 0.96416  0.16094  0.88532  Biso   1.000  O
  O2       1.0000 0.99159  0.65071  0.02067  Biso   1.000  O
  O3       1.0000 0.47435  0.13351  0.02076  Biso   1.000  O
  O4       1.0000 0.48747  0.63764  0.02179  Biso   1.000  O
  O5       1.0000 0.04200  0.08302  0.35537  Biso   1.000  O
  O6       1.0000 0.00602  0.60052  0.52744  Biso   1.000  O
  O7       1.0000 0.52459  0.11914  0.52752  Biso   1.000  O
  O8       1.0000 0.50807  0.61709  0.52581  Biso   1.000  O
  O9       1.0000 0.99694  0.34746  0.49835  Biso   1.000  O
  O10      1.0000 0.97197  0.84727  0.56365  Biso   1.000  O
  O11      1.0000 0.49502  0.37032  0.50079  Biso   1.000  O
  O12      1.0000 0.47216  0.87224  0.49838  Biso   1.000  O
  O13      1.0000 0.01170  0.39564  0.00216  Biso   1.000  O
  O14      1.0000 0.04390  0.91920  0.03535  Biso   1.000  O
  O15      1.0000 0.51229  0.38759  0.99579  Biso   1.000  O
  O16      1.0000 0.52034  0.88700  0.00219  Biso   1.000  O
  O17      1.0000 0.27779  0.15309  0.56354  Biso   1.000  O
  O18      1.0000 0.25293  0.65292  0.49840  Biso   1.000  O
  O19      1.0000 0.77762  0.12822  0.49838  Biso   1.000  O
  O20      1.0000 0.75483  0.63014  0.50067  Biso   1.000  O
  O21      1.0000 0.20581  0.08112  0.03527  Biso   1.000  O
  O22      1.0000 0.23812  0.60475  0.00220  Biso   1.000  O
  O23      1.0000 0.72945  0.11342  0.00218  Biso   1.000  O
  O24      1.0000 0.73752  0.61283  0.99567  Biso   1.000  O
  O25      1.0000 0.25821  0.34964  0.02074  Biso   1.000  O
  O26      1.0000 0.28564  0.83946  0.88532  Biso   1.000  O
  O27      1.0000 0.76234  0.36278  0.02184  Biso   1.000  O
  O28      1.0000 0.77541  0.86690  0.02067  Biso   1.000  O
  O29      1.0000 0.24383  0.39989  0.52749  Biso   1.000  O
  O30      1.0000 0.20773  0.91730  0.35536  Biso   1.000  O
  O31      1.0000 0.74178  0.38337  0.52585  Biso   1.000  O
  O32      1.0000 0.72522  0.88133  0.52743  Biso   1.000  O
