data_image0
_cell_length_a       10.0774
_cell_length_b       10.0775
_cell_length_c       10.0776
_cell_angle_alpha    90.004
_cell_angle_beta     89.9981
_cell_angle_gamma    90.005

_symmetry_space_group_name_H-M    "P 1"
_symmetry_int_tables_number       1

loop_
  _symmetry_equiv_pos_as_xyz
  'x, y, z'

loop_
  _atom_site_label
  _atom_site_occupancy
  _atom_site_fract_x
  _atom_site_fract_y
  _atom_site_fract_z
  _atom_site_thermal_displace_type
  _atom_site_B_iso_or_equiv
  _atom_site_type_symbol
  C1       1.0000 0.12524  0.00018  0.12529  Biso   1.000  C
  Zr1      1.0000 0.12518  0.00020  0.62526  Biso   1.000  Zr
  Zr2      1.0000 0.12519  0.50019  0.12521  Biso   1.000  Zr
  Zr3      1.0000 0.12518  0.50021  0.62520  Biso   1.000  Zr
  Zr4      1.0000 0.62522  0.00020  0.12522  Biso   1.000  Zr
  Zr5      1.0000 0.62518  0.00021  0.62520  Biso   1.000  Zr
  Zr6      1.0000 0.62517  0.50021  0.12521  Biso   1.000  Zr
  Zr7      1.0000 0.62518  0.50021  0.62520  Biso   1.000  Zr
  Zr8      1.0000 0.13090  0.24989  0.37490  Biso   1.000  Zr
  Zr9      1.0000 0.11941  0.24996  0.87546  Biso   1.000  Zr
  Zr10     1.0000 0.11946  0.75049  0.37493  Biso   1.000  Zr
  Zr11     1.0000 0.13093  0.75050  0.87551  Biso   1.000  Zr
  Zr12     1.0000 0.62788  0.25010  0.37509  Biso   1.000  Zr
  Zr13     1.0000 0.62242  0.25012  0.87529  Biso   1.000  Zr
  Zr14     1.0000 0.62247  0.75030  0.37511  Biso   1.000  Zr
  Zr15     1.0000 0.62790  0.75032  0.87531  Biso   1.000  Zr
  Zr16     1.0000 0.37486  0.24989  0.13094  Biso   1.000  Zr
  Zr17     1.0000 0.37508  0.25011  0.62791  Biso   1.000  Zr
  Zr18     1.0000 0.37490  0.75048  0.11948  Biso   1.000  Zr
  Zr19     1.0000 0.37510  0.75029  0.62250  Biso   1.000  Zr
  Zr20     1.0000 0.87543  0.24996  0.11944  Biso   1.000  Zr
  Zr21     1.0000 0.87525  0.25013  0.62246  Biso   1.000  Zr
  Zr22     1.0000 0.87549  0.75051  0.13095  Biso   1.000  Zr
  Zr23     1.0000 0.87527  0.75031  0.62792  Biso   1.000  Zr
  Zr24     1.0000 0.37488  0.00592  0.37492  Biso   1.000  Zr
  Zr25     1.0000 0.37489  0.99447  0.87550  Biso   1.000  Zr
  Zr26     1.0000 0.37508  0.50290  0.37511  Biso   1.000  Zr
  Zr27     1.0000 0.37508  0.49749  0.87530  Biso   1.000  Zr
  Zr28     1.0000 0.87549  0.99447  0.37492  Biso   1.000  Zr
  Zr29     1.0000 0.87544  0.00598  0.87547  Biso   1.000  Zr
  Zr30     1.0000 0.87527  0.49749  0.37511  Biso   1.000  Zr
  Zr31     1.0000 0.87527  0.50296  0.87529  Biso   1.000  Zr
  O1       1.0000 0.96710  0.15830  0.96712  Biso   1.000  O
  O2       1.0000 0.99036  0.13502  0.47359  Biso   1.000  O
  O3       1.0000 0.99037  0.65185  0.99037  Biso   1.000  O
  O4       1.0000 0.98958  0.63485  0.49054  Biso   1.000  O
  O5       1.0000 0.47356  0.13504  0.99036  Biso   1.000  O
  O6       1.0000 0.49054  0.13582  0.49053  Biso   1.000  O
  O7       1.0000 0.49054  0.63486  0.98956  Biso   1.000  O
  O8       1.0000 0.49015  0.63524  0.49014  Biso   1.000  O
  O9       1.0000 0.04289  0.08253  0.20767  Biso   1.000  O
  O10      1.0000 0.00668  0.11869  0.73008  Biso   1.000  O
  O11      1.0000 0.00671  0.60509  0.24363  Biso   1.000  O
  O12      1.0000 0.00832  0.61715  0.74210  Biso   1.000  O
  O13      1.0000 0.52028  0.11865  0.24362  Biso   1.000  O
  O14      1.0000 0.50822  0.11705  0.74209  Biso   1.000  O
  O15      1.0000 0.50824  0.61712  0.24203  Biso   1.000  O
  O16      1.0000 0.50816  0.61721  0.74219  Biso   1.000  O
  O17      1.0000 0.99037  0.34856  0.26002  Biso   1.000  O
  O18      1.0000 0.98956  0.36558  0.75986  Biso   1.000  O
  O19      1.0000 0.96706  0.84205  0.28338  Biso   1.000  O
  O20      1.0000 0.99039  0.86543  0.77688  Biso   1.000  O
  O21      1.0000 0.49053  0.36554  0.26085  Biso   1.000  O
  O22      1.0000 0.49013  0.36516  0.76027  Biso   1.000  O
  O23      1.0000 0.47359  0.86537  0.26005  Biso   1.000  O
  O24      1.0000 0.49055  0.86458  0.75988  Biso   1.000  O
  O25      1.0000 0.00669  0.39533  0.00676  Biso   1.000  O
  O26      1.0000 0.00831  0.38329  0.50829  Biso   1.000  O
  O27      1.0000 0.04289  0.91781  0.04294  Biso   1.000  O
  O28      1.0000 0.00671  0.88176  0.52035  Biso   1.000  O
  O29      1.0000 0.50822  0.38329  0.00838  Biso   1.000  O
  O30      1.0000 0.50815  0.38319  0.50822  Biso   1.000  O
  O31      1.0000 0.52030  0.88176  0.00677  Biso   1.000  O
  O32      1.0000 0.50824  0.88335  0.50831  Biso   1.000  O
  O33      1.0000 0.28335  0.15836  0.28340  Biso   1.000  O
  O34      1.0000 0.25995  0.13500  0.77687  Biso   1.000  O
  O35      1.0000 0.25999  0.65181  0.26003  Biso   1.000  O
  O36      1.0000 0.26079  0.63485  0.75987  Biso   1.000  O
  O37      1.0000 0.77682  0.13502  0.26001  Biso   1.000  O
  O38      1.0000 0.75980  0.13585  0.75986  Biso   1.000  O
  O39      1.0000 0.75982  0.63486  0.26086  Biso   1.000  O
  O40      1.0000 0.76022  0.63528  0.76028  Biso   1.000  O
  O41      1.0000 0.20763  0.08254  0.04295  Biso   1.000  O
  O42      1.0000 0.24363  0.11865  0.52035  Biso   1.000  O
  O43      1.0000 0.24364  0.60509  0.00677  Biso   1.000  O
  O44      1.0000 0.24205  0.61713  0.50830  Biso   1.000  O
  O45      1.0000 0.73007  0.11868  0.00675  Biso   1.000  O
  O46      1.0000 0.74211  0.11706  0.50829  Biso   1.000  O
  O47      1.0000 0.74211  0.61715  0.00839  Biso   1.000  O
  O48      1.0000 0.74221  0.61721  0.50824  Biso   1.000  O
  O49      1.0000 0.25997  0.34856  0.99038  Biso   1.000  O
  O50      1.0000 0.26078  0.36555  0.49054  Biso   1.000  O
  O51      1.0000 0.28333  0.84206  0.96709  Biso   1.000  O
  O52      1.0000 0.25999  0.86539  0.47361  Biso   1.000  O
  O53      1.0000 0.75981  0.36557  0.98955  Biso   1.000  O
  O54      1.0000 0.76020  0.36516  0.49012  Biso   1.000  O
  O55      1.0000 0.77684  0.86541  0.99038  Biso   1.000  O
  O56      1.0000 0.75982  0.86459  0.49054  Biso   1.000  O
  O57      1.0000 0.24364  0.39529  0.24364  Biso   1.000  O
  O58      1.0000 0.24203  0.38328  0.74210  Biso   1.000  O
  O59      1.0000 0.20762  0.91781  0.20766  Biso   1.000  O
  O60      1.0000 0.24366  0.88174  0.73010  Biso   1.000  O
  O61      1.0000 0.74210  0.38329  0.24201  Biso   1.000  O
  O62      1.0000 0.74219  0.38322  0.74217  Biso   1.000  O
  O63      1.0000 0.73010  0.88175  0.24364  Biso   1.000  O
  O64      1.0000 0.74212  0.88338  0.74211  Biso   1.000  O
