data_image0
_cell_length_a       10.2273
_cell_length_b       10.3745
_cell_length_c       10.5927
_cell_angle_alpha    89.8801
_cell_angle_beta     79.5906
_cell_angle_gamma    90.0873

_symmetry_space_group_name_H-M    "P 1"
_symmetry_int_tables_number       1

loop_
  _symmetry_equiv_pos_as_xyz
  'x, y, z'

loop_
  _atom_site_label
  _atom_site_occupancy
  _atom_site_fract_x
  _atom_site_fract_y
  _atom_site_fract_z
  _atom_site_thermal_displace_type
  _atom_site_B_iso_or_equiv
  _atom_site_type_symbol
  Zr1      1.0000 0.13603  0.02066  0.14544  Biso   1.000  Zr
  Zr2      1.0000 0.13425  0.22776  0.39440  Biso   1.000  Zr
  Zr3      1.0000 0.34339  0.27341  0.07962  Biso   1.000  Zr
  Zr4      1.0000 0.35842  0.48963  0.35701  Biso   1.000  Zr
  O1       1.0000 0.03370  0.16758  0.07660  Biso   1.000  O
  O2       1.0000 0.03185  0.08279  0.32814  Biso   1.000  O
  O3       1.0000 0.46325  0.41833  0.17117  Biso   1.000  O
  O4       1.0000 0.47614  0.35169  0.43578  Biso   1.000  O
  O5       1.0000 0.27405  0.12409  0.23416  Biso   1.000  O
  O6       1.0000 0.28576  0.12773  0.47978  Biso   1.000  O
  O7       1.0000 0.21124  0.38634  0.00067  Biso   1.000  O
  O8       1.0000 0.23009  0.36587  0.25708  Biso   1.000  O
  Zr5      1.0000 0.13952  0.02215  0.64356  Biso   1.000  Zr
  Zr6      1.0000 0.13294  0.22808  0.88965  Biso   1.000  Zr
  Zr7      1.0000 0.36143  0.27634  0.60469  Biso   1.000  Zr
  Zr8      1.0000 0.35826  0.48339  0.85122  Biso   1.000  Zr
  O9       1.0000 0.03932  0.16984  0.57971  Biso   1.000  O
  O10      1.0000 0.03200  0.08210  0.82639  Biso   1.000  O
  O11      1.0000 0.46679  0.41775  0.67659  Biso   1.000  O
  O12      1.0000 0.46463  0.33692  0.91735  Biso   1.000  O
  O13      1.0000 0.27453  0.12836  0.73615  Biso   1.000  O
  O14      1.0000 0.27005  0.11989  0.98376  Biso   1.000  O
  O15      1.0000 0.22324  0.38147  0.50774  Biso   1.000  O
  O16      1.0000 0.22355  0.37203  0.75629  Biso   1.000  O
  Zr9      1.0000 0.13724  0.52250  0.14707  Biso   1.000  Zr
  Zr10     1.0000 0.13488  0.72883  0.39661  Biso   1.000  Zr
  Zr11     1.0000 0.35930  0.77191  0.10359  Biso   1.000  Zr
  Zr12     1.0000 0.36006  0.96874  0.35396  Biso   1.000  Zr
  O17      1.0000 0.03287  0.66601  0.07974  Biso   1.000  O
  O18      1.0000 0.03285  0.58194  0.33002  Biso   1.000  O
  O19      1.0000 0.46589  0.91458  0.17354  Biso   1.000  O
  O20      1.0000 0.46448  0.82843  0.42446  Biso   1.000  O
  O21      1.0000 0.27341  0.62879  0.24132  Biso   1.000  O
  O22      1.0000 0.27190  0.62651  0.49307  Biso   1.000  O
  O23      1.0000 0.22258  0.87837  0.00917  Biso   1.000  O
  O24      1.0000 0.22031  0.86826  0.25853  Biso   1.000  O
  Zr13     1.0000 0.13723  0.52261  0.64563  Biso   1.000  Zr
  Zr14     1.0000 0.13690  0.72870  0.89677  Biso   1.000  Zr
  Zr15     1.0000 0.36116  0.77188  0.60592  Biso   1.000  Zr
  Zr16     1.0000 0.35998  0.97715  0.85296  Biso   1.000  Zr
  O25      1.0000 0.03099  0.66679  0.57935  Biso   1.000  O
  O26      1.0000 0.03300  0.58339  0.82957  Biso   1.000  O
  O27      1.0000 0.46628  0.91635  0.67278  Biso   1.000  O
  O28      1.0000 0.46530  0.83461  0.92262  Biso   1.000  O
  O29      1.0000 0.27431  0.62881  0.74076  Biso   1.000  O
  O30      1.0000 0.27511  0.62414  0.99121  Biso   1.000  O
  O31      1.0000 0.22337  0.88006  0.51061  Biso   1.000  O
  O32      1.0000 0.22332  0.87104  0.75967  Biso   1.000  O
  Zr17     1.0000 0.64026  0.01810  0.14775  Biso   1.000  Zr
  Zr18     1.0000 0.65327  0.22656  0.41258  Biso   1.000  Zr
  Zr19     1.0000 0.85982  0.27096  0.10763  Biso   1.000  Zr
  Zr20     1.0000 0.85938  0.47846  0.35589  Biso   1.000  Zr
  O33      1.0000 0.52886  0.16740  0.08148  Biso   1.000  O
  O34      1.0000 0.54481  0.06981  0.33801  Biso   1.000  O
  O35      1.0000 0.96484  0.41583  0.17403  Biso   1.000  O
  O36      1.0000 0.96321  0.33185  0.42317  Biso   1.000  O
  O37      1.0000 0.77791  0.12788  0.24330  Biso   1.000  O
  O38      1.0000 0.78644  0.11713  0.50026  Biso   1.000  O
  O39      1.0000 0.72254  0.37783  0.01363  Biso   1.000  O
  O40      1.0000 0.72084  0.36870  0.26390  Biso   1.000  O
  Zr21     1.0000 0.63926  0.02113  0.64944  Biso   1.000  Zr
  Zr22     1.0000 0.63758  0.22784  0.89938  Biso   1.000  Zr
  Zr23     1.0000 0.86288  0.27220  0.61060  Biso   1.000  Zr
  Zr24     1.0000 0.85931  0.47899  0.85741  Biso   1.000  Zr
  O41      1.0000 0.53642  0.16853  0.58369  Biso   1.000  O
  O42      1.0000 0.53159  0.08422  0.83041  Biso   1.000  O
  O43      1.0000 0.96587  0.41769  0.67424  Biso   1.000  O
  O44      1.0000 0.96111  0.33111  0.92114  Biso   1.000  O
  O45      1.0000 0.77484  0.12921  0.74620  Biso   1.000  O
  O46      1.0000 0.77416  0.12101  0.99395  Biso   1.000  O
  O47      1.0000 0.72829  0.37976  0.51642  Biso   1.000  O
  O48      1.0000 0.72384  0.37176  0.76447  Biso   1.000  O
  Zr25     1.0000 0.63571  0.52153  0.14687  Biso   1.000  Zr
  Zr26     1.0000 0.63928  0.72766  0.39788  Biso   1.000  Zr
  Zr27     1.0000 0.85981  0.77047  0.10627  Biso   1.000  Zr
  Zr28     1.0000 0.85833  0.97700  0.35582  Biso   1.000  Zr
  O49      1.0000 0.53226  0.66689  0.07828  Biso   1.000  O
  O50      1.0000 0.53271  0.58793  0.32672  Biso   1.000  O
  O51      1.0000 0.96392  0.91496  0.17369  Biso   1.000  O
  O52      1.0000 0.96418  0.83321  0.42345  Biso   1.000  O
  O53      1.0000 0.77538  0.62675  0.24184  Biso   1.000  O
  O54      1.0000 0.77484  0.62113  0.49186  Biso   1.000  O
  O55      1.0000 0.72329  0.87708  0.01128  Biso   1.000  O
  O56      1.0000 0.72330  0.86914  0.26059  Biso   1.000  O
  Zr29     1.0000 0.63865  0.52291  0.64882  Biso   1.000  Zr
  Zr30     1.0000 0.63748  0.72844  0.89772  Biso   1.000  Zr
  Zr31     1.0000 0.86005  0.77270  0.60661  Biso   1.000  Zr
  Zr32     1.0000 0.85967  0.97785  0.85639  Biso   1.000  Zr
  O57      1.0000 0.53274  0.66536  0.58009  Biso   1.000  O
  O58      1.0000 0.53181  0.58649  0.82903  Biso   1.000  O
  O59      1.0000 0.96558  0.91728  0.67294  Biso   1.000  O
  O60      1.0000 0.96493  0.83337  0.92365  Biso   1.000  O
  O61      1.0000 0.77470  0.62930  0.74254  Biso   1.000  O
  O62      1.0000 0.77393  0.62102  0.99200  Biso   1.000  O
  O63      1.0000 0.72288  0.87689  0.51247  Biso   1.000  O
  O64      1.0000 0.72377  0.87224  0.76227  Biso   1.000  O
  Ca1      1.0000 0.44552  0.23457  0.27951  Biso   1.000  Ca
