data_image0
_cell_length_a       10.0695
_cell_length_b       10.2087
_cell_length_c       10.0695
_cell_angle_alpha    90
_cell_angle_beta     89.9999
_cell_angle_gamma    90

_symmetry_space_group_name_H-M    "P 1"
_symmetry_int_tables_number       1

loop_
  _symmetry_equiv_pos_as_xyz
  'x, y, z'

loop_
  _atom_site_label
  _atom_site_occupancy
  _atom_site_fract_x
  _atom_site_fract_y
  _atom_site_fract_z
  _atom_site_thermal_displace_type
  _atom_site_B_iso_or_equiv
  _atom_site_type_symbol
  Ca1      1.0000 0.12533  0.00034  0.12534  Biso   1.000  Ca
  Zr1      1.0000 0.12533  0.00034  0.62534  Biso   1.000  Zr
  Zr2      1.0000 0.12534  0.50035  0.12535  Biso   1.000  Zr
  Zr3      1.0000 0.12533  0.50034  0.62534  Biso   1.000  Zr
  Zr4      1.0000 0.62533  0.00034  0.12534  Biso   1.000  Zr
  Zr5      1.0000 0.62533  0.00034  0.62534  Biso   1.000  Zr
  Zr6      1.0000 0.62533  0.50034  0.12534  Biso   1.000  Zr
  Zr7      1.0000 0.62533  0.50034  0.62534  Biso   1.000  Zr
  Zr8      1.0000 0.12486  0.24969  0.37363  Biso   1.000  Zr
  Zr9      1.0000 0.12581  0.24970  0.87706  Biso   1.000  Zr
  Zr10     1.0000 0.12581  0.75099  0.37363  Biso   1.000  Zr
  Zr11     1.0000 0.12485  0.75099  0.87706  Biso   1.000  Zr
  Zr12     1.0000 0.62516  0.24990  0.37501  Biso   1.000  Zr
  Zr13     1.0000 0.62551  0.24990  0.87568  Biso   1.000  Zr
  Zr14     1.0000 0.62551  0.75079  0.37501  Biso   1.000  Zr
  Zr15     1.0000 0.62516  0.75079  0.87567  Biso   1.000  Zr
  Zr16     1.0000 0.37362  0.24969  0.12487  Biso   1.000  Zr
  Zr17     1.0000 0.37500  0.24990  0.62517  Biso   1.000  Zr
  Zr18     1.0000 0.37362  0.75099  0.12582  Biso   1.000  Zr
  Zr19     1.0000 0.37500  0.75079  0.62552  Biso   1.000  Zr
  Zr20     1.0000 0.87705  0.24970  0.12582  Biso   1.000  Zr
  Zr21     1.0000 0.87567  0.24990  0.62552  Biso   1.000  Zr
  Zr22     1.0000 0.87705  0.75099  0.12486  Biso   1.000  Zr
  Zr23     1.0000 0.87566  0.75079  0.62517  Biso   1.000  Zr
  Zr24     1.0000 0.37351  0.99948  0.37352  Biso   1.000  Zr
  Zr25     1.0000 0.37351  0.00121  0.87717  Biso   1.000  Zr
  Zr26     1.0000 0.37504  0.49954  0.37505  Biso   1.000  Zr
  Zr27     1.0000 0.37504  0.50114  0.87563  Biso   1.000  Zr
  Zr28     1.0000 0.87716  0.00121  0.37352  Biso   1.000  Zr
  Zr29     1.0000 0.87716  0.99949  0.87717  Biso   1.000  Zr
  Zr30     1.0000 0.87562  0.50114  0.37505  Biso   1.000  Zr
  Zr31     1.0000 0.87562  0.49954  0.87564  Biso   1.000  Zr
  O1       1.0000 0.99593  0.14448  0.99594  Biso   1.000  O
  O2       1.0000 0.00456  0.14400  0.50572  Biso   1.000  O
  O3       1.0000 0.00365  0.63774  0.00366  Biso   1.000  O
  O4       1.0000 0.00187  0.64355  0.50302  Biso   1.000  O
  O5       1.0000 0.50571  0.14400  0.00458  Biso   1.000  O
  O6       1.0000 0.50351  0.14527  0.50352  Biso   1.000  O
  O7       1.0000 0.50301  0.64355  0.00188  Biso   1.000  O
  O8       1.0000 0.50166  0.64474  0.50167  Biso   1.000  O
  O9       1.0000 0.99179  0.12062  0.25889  Biso   1.000  O
  O10      1.0000 0.99818  0.10647  0.75107  Biso   1.000  O
  O11      1.0000 0.99865  0.60959  0.25203  Biso   1.000  O
  O12      1.0000 0.99942  0.60668  0.75241  Biso   1.000  O
  O13      1.0000 0.49960  0.10647  0.25249  Biso   1.000  O
  O14      1.0000 0.49856  0.10591  0.75211  Biso   1.000  O
  O15      1.0000 0.49827  0.60668  0.25126  Biso   1.000  O
  O16      1.0000 0.49953  0.60578  0.75115  Biso   1.000  O
  O17      1.0000 0.00365  0.36294  0.24703  Biso   1.000  O
  O18      1.0000 0.00186  0.35714  0.74767  Biso   1.000  O
  O19      1.0000 0.99593  0.85621  0.25474  Biso   1.000  O
  O20      1.0000 0.00457  0.85669  0.74496  Biso   1.000  O
  O21      1.0000 0.50301  0.35714  0.24881  Biso   1.000  O
  O22      1.0000 0.50165  0.35594  0.74902  Biso   1.000  O
  O23      1.0000 0.50571  0.85669  0.24610  Biso   1.000  O
  O24      1.0000 0.50351  0.85542  0.74716  Biso   1.000  O
  O25      1.0000 0.99865  0.39110  0.99866  Biso   1.000  O
  O26      1.0000 0.99942  0.39400  0.49828  Biso   1.000  O
  O27      1.0000 0.99178  0.88007  0.99179  Biso   1.000  O
  O28      1.0000 0.99818  0.89422  0.49961  Biso   1.000  O
  O29      1.0000 0.49828  0.39400  0.99943  Biso   1.000  O
  O30      1.0000 0.49953  0.39491  0.49954  Biso   1.000  O
  O31      1.0000 0.49960  0.89422  0.99819  Biso   1.000  O
  O32      1.0000 0.49856  0.89477  0.49857  Biso   1.000  O
  O33      1.0000 0.25474  0.14448  0.25475  Biso   1.000  O
  O34      1.0000 0.24609  0.14400  0.74496  Biso   1.000  O
  O35      1.0000 0.24702  0.63774  0.24703  Biso   1.000  O
  O36      1.0000 0.24880  0.64355  0.74767  Biso   1.000  O
  O37      1.0000 0.74495  0.14400  0.24610  Biso   1.000  O
  O38      1.0000 0.74715  0.14527  0.74716  Biso   1.000  O
  O39      1.0000 0.74766  0.64355  0.24881  Biso   1.000  O
  O40      1.0000 0.74901  0.64474  0.74902  Biso   1.000  O
  O41      1.0000 0.25888  0.12062  0.99180  Biso   1.000  O
  O42      1.0000 0.25248  0.10647  0.49961  Biso   1.000  O
  O43      1.0000 0.25202  0.60959  0.99866  Biso   1.000  O
  O44      1.0000 0.25125  0.60668  0.49828  Biso   1.000  O
  O45      1.0000 0.75106  0.10647  0.99819  Biso   1.000  O
  O46      1.0000 0.75210  0.10591  0.49856  Biso   1.000  O
  O47      1.0000 0.75240  0.60668  0.99943  Biso   1.000  O
  O48      1.0000 0.75114  0.60578  0.49954  Biso   1.000  O
  O49      1.0000 0.24702  0.36294  0.00366  Biso   1.000  O
  O50      1.0000 0.24880  0.35714  0.50302  Biso   1.000  O
  O51      1.0000 0.25473  0.85621  0.99594  Biso   1.000  O
  O52      1.0000 0.24610  0.85669  0.50572  Biso   1.000  O
  O53      1.0000 0.74766  0.35714  0.00187  Biso   1.000  O
  O54      1.0000 0.74901  0.35594  0.50166  Biso   1.000  O
  O55      1.0000 0.74495  0.85669  0.00458  Biso   1.000  O
  O56      1.0000 0.74715  0.85542  0.50352  Biso   1.000  O
  O57      1.0000 0.25202  0.39110  0.25203  Biso   1.000  O
  O58      1.0000 0.25124  0.39400  0.75241  Biso   1.000  O
  O59      1.0000 0.25888  0.88007  0.25889  Biso   1.000  O
  O60      1.0000 0.25248  0.89422  0.75108  Biso   1.000  O
  O61      1.0000 0.75240  0.39400  0.25125  Biso   1.000  O
  O62      1.0000 0.75113  0.39491  0.75115  Biso   1.000  O
  O63      1.0000 0.75106  0.89422  0.25250  Biso   1.000  O
  O64      1.0000 0.75211  0.89477  0.75212  Biso   1.000  O
