data_image0
_cell_length_a       5.11152
_cell_length_b       10.3728
_cell_length_c       10.1736
_cell_angle_alpha    91.1158
_cell_angle_beta     89.4558
_cell_angle_gamma    87.9863

_symmetry_space_group_name_H-M    "P 1"
_symmetry_int_tables_number       1

loop_
  _symmetry_equiv_pos_as_xyz
  'x, y, z'

loop_
  _atom_site_label
  _atom_site_occupancy
  _atom_site_fract_x
  _atom_site_fract_y
  _atom_site_fract_z
  _atom_site_thermal_displace_type
  _atom_site_B_iso_or_equiv
  _atom_site_type_symbol
  Zr1      1.0000 0.24801  0.97104  0.10666  Biso   1.000  Zr
  Zr2      1.0000 0.25623  0.24074  0.40328  Biso   1.000  Zr
  Zr3      1.0000 0.81721  0.25107  0.12479  Biso   1.000  Zr
  Zr4      1.0000 0.78256  0.02129  0.35906  Biso   1.000  Zr
  O1       1.0000 0.06784  0.13006  0.99171  Biso   1.000  O
  O2       1.0000 0.08037  0.11369  0.24779  Biso   1.000  O
  O3       1.0000 0.05277  0.37004  0.25946  Biso   1.000  O
  O4       1.0000 0.05998  0.38605  0.00420  Biso   1.000  O
  O5       1.0000 0.59433  0.18599  0.28508  Biso   1.000  O
  O6       1.0000 0.56792  0.07708  0.03284  Biso   1.000  O
  O7       1.0000 0.58737  0.31599  0.96582  Biso   1.000  O
  O8       1.0000 0.55540  0.42591  0.21036  Biso   1.000  O
  Zr5      1.0000 0.24794  0.98527  0.61910  Biso   1.000  Zr
  Zr6      1.0000 0.25733  0.25953  0.84906  Biso   1.000  Zr
  Zr7      1.0000 0.75136  0.25171  0.62816  Biso   1.000  Zr
  Zr8      1.0000 0.77848  0.01326  0.87022  Biso   1.000  Zr
  O9       1.0000 0.99115  0.13587  0.50315  Biso   1.000  O
  O10      1.0000 0.02927  0.11358  0.74638  Biso   1.000  O
  O11      1.0000 0.98039  0.36438  0.74880  Biso   1.000  O
  O12      1.0000 0.00599  0.38621  0.50506  Biso   1.000  O
  O13      1.0000 0.54065  0.14963  0.75849  Biso   1.000  O
  O14      1.0000 0.49286  0.09387  0.50555  Biso   1.000  O
  O15      1.0000 0.52157  0.35116  0.49581  Biso   1.000  O
  O16      1.0000 0.48144  0.40277  0.74262  Biso   1.000  O
  Zr9      1.0000 0.21891  0.52928  0.14128  Biso   1.000  Zr
  Zr10     1.0000 0.19931  0.74353  0.39273  Biso   1.000  Zr
  Zr11     1.0000 0.73472  0.76603  0.14261  Biso   1.000  Zr
  Zr12     1.0000 0.74773  0.48543  0.37908  Biso   1.000  Zr
  O17      1.0000 0.94132  0.63394  0.01128  Biso   1.000  O
  O18      1.0000 0.93632  0.62310  0.26392  Biso   1.000  O
  O19      1.0000 0.01218  0.86765  0.25008  Biso   1.000  O
  O20      1.0000 0.96543  0.87835  0.99836  Biso   1.000  O
  O21      1.0000 0.41958  0.67854  0.22664  Biso   1.000  O
  O22      1.0000 0.42691  0.57517  0.97126  Biso   1.000  O
  O23      1.0000 0.45924  0.82623  0.00388  Biso   1.000  O
  O24      1.0000 0.52360  0.91996  0.24826  Biso   1.000  O
  Zr13     1.0000 0.22676  0.51029  0.62633  Biso   1.000  Zr
  Zr14     1.0000 0.20426  0.72866  0.88273  Biso   1.000  Zr
  Zr15     1.0000 0.73506  0.76249  0.64297  Biso   1.000  Zr
  Zr16     1.0000 0.75109  0.48077  0.89314  Biso   1.000  Zr
  O25      1.0000 0.94539  0.63854  0.51068  Biso   1.000  O
  O26      1.0000 0.95273  0.60812  0.76015  Biso   1.000  O
  O27      1.0000 0.01551  0.85997  0.75100  Biso   1.000  O
  O28      1.0000 0.96456  0.89176  0.50239  Biso   1.000  O
  O29      1.0000 0.43426  0.66051  0.72234  Biso   1.000  O
  O30      1.0000 0.42395  0.58322  0.46387  Biso   1.000  O
  O31      1.0000 0.45546  0.83405  0.51249  Biso   1.000  O
  O32      1.0000 0.52318  0.91057  0.75168  Biso   1.000  O
  Ca1      1.0000 0.32323  0.25012  0.12545  Biso   1.000  Ca
