data_image0
_cell_length_a       10.205
_cell_length_b       10.3787
_cell_length_c       10.5066
_cell_angle_alpha    90.0269
_cell_angle_beta     80.5344
_cell_angle_gamma    90.0353

_symmetry_space_group_name_H-M    "P 1"
_symmetry_int_tables_number       1

loop_
  _symmetry_equiv_pos_as_xyz
  'x, y, z'

loop_
  _atom_site_label
  _atom_site_occupancy
  _atom_site_fract_x
  _atom_site_fract_y
  _atom_site_fract_z
  _atom_site_thermal_displace_type
  _atom_site_B_iso_or_equiv
  _atom_site_type_symbol
  Ce1      1.0000 0.13531  0.01682  0.14503  Biso   1.000  Ce
  Zr1      1.0000 0.13913  0.02111  0.64553  Biso   1.000  Zr
  Zr2      1.0000 0.13847  0.52117  0.14464  Biso   1.000  Zr
  Zr3      1.0000 0.13874  0.52129  0.64530  Biso   1.000  Zr
  Zr4      1.0000 0.63886  0.02087  0.14535  Biso   1.000  Zr
  Zr5      1.0000 0.63910  0.02200  0.64610  Biso   1.000  Zr
  Zr6      1.0000 0.63837  0.51978  0.14562  Biso   1.000  Zr
  Zr7      1.0000 0.63888  0.52115  0.64502  Biso   1.000  Zr
  Zr8      1.0000 0.13908  0.22952  0.39725  Biso   1.000  Zr
  Zr9      1.0000 0.13912  0.23106  0.89308  Biso   1.000  Zr
  Zr10     1.0000 0.13853  0.72720  0.39612  Biso   1.000  Zr
  Zr11     1.0000 0.13933  0.72806  0.89442  Biso   1.000  Zr
  Zr12     1.0000 0.63809  0.22937  0.39572  Biso   1.000  Zr
  Zr13     1.0000 0.63922  0.22876  0.89542  Biso   1.000  Zr
  Zr14     1.0000 0.63729  0.72700  0.39584  Biso   1.000  Zr
  Zr15     1.0000 0.64029  0.72884  0.89376  Biso   1.000  Zr
  Zr16     1.0000 0.36151  0.27136  0.10408  Biso   1.000  Zr
  Zr17     1.0000 0.36151  0.27103  0.60439  Biso   1.000  Zr
  Zr18     1.0000 0.36519  0.76858  0.10372  Biso   1.000  Zr
  Zr19     1.0000 0.36086  0.77114  0.60467  Biso   1.000  Zr
  Zr20     1.0000 0.85943  0.27280  0.10402  Biso   1.000  Zr
  Zr21     1.0000 0.86162  0.27165  0.60503  Biso   1.000  Zr
  Zr22     1.0000 0.85765  0.76773  0.10437  Biso   1.000  Zr
  Zr23     1.0000 0.86183  0.77168  0.60439  Biso   1.000  Zr
  Zr24     1.0000 0.36013  0.47814  0.35403  Biso   1.000  Zr
  Zr25     1.0000 0.36236  0.47865  0.85435  Biso   1.000  Zr
  Zr26     1.0000 0.36309  0.97856  0.35610  Biso   1.000  Zr
  Zr27     1.0000 0.36330  0.97834  0.85280  Biso   1.000  Zr
  Zr28     1.0000 0.86141  0.47848  0.35487  Biso   1.000  Zr
  Zr29     1.0000 0.86117  0.47885  0.85355  Biso   1.000  Zr
  Zr30     1.0000 0.85491  0.97816  0.35824  Biso   1.000  Zr
  Zr31     1.0000 0.86220  0.97871  0.85522  Biso   1.000  Zr
  O1       1.0000 0.03563  0.18006  0.07811  Biso   1.000  O
  O2       1.0000 0.03677  0.17206  0.58384  Biso   1.000  O
  O3       1.0000 0.03665  0.67245  0.08167  Biso   1.000  O
  O4       1.0000 0.03598  0.67031  0.58108  Biso   1.000  O
  O5       1.0000 0.53617  0.16967  0.08050  Biso   1.000  O
  O6       1.0000 0.53527  0.16951  0.58065  Biso   1.000  O
  O7       1.0000 0.53799  0.66889  0.07987  Biso   1.000  O
  O8       1.0000 0.53503  0.66871  0.58080  Biso   1.000  O
  O9       1.0000 0.02912  0.08279  0.33849  Biso   1.000  O
  O10      1.0000 0.03761  0.07856  0.83309  Biso   1.000  O
  O11      1.0000 0.03566  0.58015  0.33062  Biso   1.000  O
  O12      1.0000 0.03591  0.57970  0.83044  Biso   1.000  O
  O13      1.0000 0.53712  0.07912  0.33158  Biso   1.000  O
  O14      1.0000 0.53700  0.08082  0.82972  Biso   1.000  O
  O15      1.0000 0.53454  0.57976  0.33011  Biso   1.000  O
  O16      1.0000 0.53644  0.58059  0.82997  Biso   1.000  O
  O17      1.0000 0.46402  0.41920  0.16962  Biso   1.000  O
  O18      1.0000 0.46482  0.41914  0.66943  Biso   1.000  O
  O19      1.0000 0.46375  0.92081  0.16880  Biso   1.000  O
  O20      1.0000 0.46510  0.91927  0.66919  Biso   1.000  O
  O21      1.0000 0.96218  0.42233  0.16840  Biso   1.000  O
  O22      1.0000 0.96377  0.42138  0.66817  Biso   1.000  O
  O23      1.0000 0.94863  0.92079  0.17224  Biso   1.000  O
  O24      1.0000 0.96432  0.92027  0.66965  Biso   1.000  O
  O25      1.0000 0.46361  0.32984  0.41909  Biso   1.000  O
  O26      1.0000 0.46613  0.33191  0.91982  Biso   1.000  O
  O27      1.0000 0.46396  0.82952  0.42062  Biso   1.000  O
  O28      1.0000 0.46933  0.83154  0.91894  Biso   1.000  O
  O29      1.0000 0.96423  0.33107  0.42012  Biso   1.000  O
  O30      1.0000 0.96257  0.33050  0.91636  Biso   1.000  O
  O31      1.0000 0.96414  0.83099  0.41886  Biso   1.000  O
  O32      1.0000 0.96514  0.83058  0.92054  Biso   1.000  O
  O33      1.0000 0.27966  0.13287  0.24554  Biso   1.000  O
  O34      1.0000 0.27598  0.12922  0.73921  Biso   1.000  O
  O35      1.0000 0.27604  0.62673  0.23971  Biso   1.000  O
  O36      1.0000 0.27589  0.62886  0.74026  Biso   1.000  O
  O37      1.0000 0.77486  0.12983  0.24130  Biso   1.000  O
  O38      1.0000 0.77683  0.12919  0.74103  Biso   1.000  O
  O39      1.0000 0.77463  0.62775  0.24076  Biso   1.000  O
  O40      1.0000 0.77625  0.62932  0.73952  Biso   1.000  O
  O41      1.0000 0.27550  0.12043  0.49172  Biso   1.000  O
  O42      1.0000 0.28109  0.12510  0.98425  Biso   1.000  O
  O43      1.0000 0.27538  0.62053  0.49051  Biso   1.000  O
  O44      1.0000 0.27621  0.61974  0.99011  Biso   1.000  O
  O45      1.0000 0.77412  0.12156  0.49222  Biso   1.000  O
  O46      1.0000 0.77600  0.12088  0.99084  Biso   1.000  O
  O47      1.0000 0.77570  0.62101  0.49032  Biso   1.000  O
  O48      1.0000 0.77614  0.62016  0.99000  Biso   1.000  O
  O49      1.0000 0.22479  0.37953  0.00836  Biso   1.000  O
  O50      1.0000 0.22412  0.37902  0.50922  Biso   1.000  O
  O51      1.0000 0.23292  0.87192  0.00214  Biso   1.000  O
  O52      1.0000 0.22421  0.87896  0.50989  Biso   1.000  O
  O53      1.0000 0.72355  0.37924  0.00912  Biso   1.000  O
  O54      1.0000 0.72408  0.37893  0.50932  Biso   1.000  O
  O55      1.0000 0.72465  0.87850  0.00920  Biso   1.000  O
  O56      1.0000 0.72323  0.87858  0.51054  Biso   1.000  O
  O57      1.0000 0.22265  0.37152  0.25881  Biso   1.000  O
  O58      1.0000 0.22476  0.37194  0.75839  Biso   1.000  O
  O59      1.0000 0.23037  0.86499  0.26189  Biso   1.000  O
  O60      1.0000 0.22454  0.87088  0.75820  Biso   1.000  O
  O61      1.0000 0.72346  0.37131  0.25976  Biso   1.000  O
  O62      1.0000 0.72440  0.37095  0.75899  Biso   1.000  O
  O63      1.0000 0.71780  0.86910  0.26132  Biso   1.000  O
  O64      1.0000 0.72563  0.87130  0.75913  Biso   1.000  O
