data_image0
_cell_length_a       10.1696
_cell_length_b       10.3312
_cell_length_c       10.6071
_cell_angle_alpha    89.9882
_cell_angle_beta     91.1283
_cell_angle_gamma    89.8083

_symmetry_space_group_name_H-M    "P 1"
_symmetry_int_tables_number       1

loop_
  _symmetry_equiv_pos_as_xyz
  'x, y, z'

loop_
  _atom_site_label
  _atom_site_occupancy
  _atom_site_fract_x
  _atom_site_fract_y
  _atom_site_fract_z
  _atom_site_thermal_displace_type
  _atom_site_B_iso_or_equiv
  _atom_site_type_symbol
  Zr1      1.0000 0.13655  0.01971  0.17282  Biso   1.000  Zr
  Zr2      1.0000 0.13683  0.22778  0.42678  Biso   1.000  Zr
  Zr3      1.0000 0.34356  0.26967  0.18765  Biso   1.000  Zr
  Zr4      1.0000 0.36164  0.47816  0.42708  Biso   1.000  Zr
  Zr5      1.0000 0.63598  0.99949  0.08040  Biso   1.000  Zr
  Zr6      1.0000 0.63417  0.22428  0.33325  Biso   1.000  Zr
  Zr7      1.0000 0.87292  0.27567  0.07236  Biso   1.000  Zr
  Zr8      1.0000 0.85944  0.47879  0.32404  Biso   1.000  Zr
  O1       1.0000 0.03271  0.15675  0.07665  Biso   1.000  O
  O2       1.0000 0.02541  0.09248  0.32769  Biso   1.000  O
  O3       1.0000 0.45679  0.42826  0.09886  Biso   1.000  O
  O4       1.0000 0.46476  0.33511  0.33606  Biso   1.000  O
  O5       1.0000 0.26534  0.12402  0.30338  Biso   1.000  O
  O6       1.0000 0.27417  0.12373  0.04907  Biso   1.000  O
  O7       1.0000 0.21781  0.37704  0.30521  Biso   1.000  O
  O8       1.0000 0.22034  0.37528  0.05024  Biso   1.000  O
  O9       1.0000 0.50343  0.13497  0.19015  Biso   1.000  O
  O10      1.0000 0.52891  0.08716  0.42645  Biso   1.000  O
  O11      1.0000 0.97093  0.41473  0.17229  Biso   1.000  O
  O12      1.0000 0.97018  0.34055  0.42014  Biso   1.000  O
  O13      1.0000 0.77510  0.12328  0.45020  Biso   1.000  O
  O14      1.0000 0.75666  0.13012  0.19695  Biso   1.000  O
  O15      1.0000 0.72473  0.37443  0.44989  Biso   1.000  O
  O16      1.0000 0.72133  0.37987  0.19793  Biso   1.000  O
  Zr9      1.0000 0.13919  0.02044  0.67384  Biso   1.000  Zr
  Zr10     1.0000 0.14329  0.22822  0.92249  Biso   1.000  Zr
  Zr11     1.0000 0.36387  0.26982  0.67691  Biso   1.000  Zr
  Zr12     1.0000 0.36088  0.48143  0.92688  Biso   1.000  Zr
  Zr13     1.0000 0.64129  0.01625  0.57550  Biso   1.000  Zr
  Zr14     1.0000 0.65506  0.22990  0.79948  Biso   1.000  Zr
  Zr15     1.0000 0.86581  0.27325  0.57192  Biso   1.000  Zr
  Zr16     1.0000 0.86818  0.48223  0.82504  Biso   1.000  Zr
  O17      1.0000 0.03169  0.15991  0.57913  Biso   1.000  O
  O18      1.0000 0.03360  0.08880  0.82951  Biso   1.000  O
  O19      1.0000 0.47258  0.41130  0.58597  Biso   1.000  O
  O20      1.0000 0.47728  0.33243  0.84392  Biso   1.000  O
  O21      1.0000 0.27646  0.12437  0.79752  Biso   1.000  O
  O22      1.0000 0.27600  0.12503  0.55034  Biso   1.000  O
  O23      1.0000 0.23154  0.37485  0.79977  Biso   1.000  O
  O24      1.0000 0.22831  0.37413  0.55129  Biso   1.000  O
  O25      1.0000 0.52984  0.15660  0.66598  Biso   1.000  O
  O26      1.0000 0.52858  0.08358  0.92178  Biso   1.000  O
  O27      1.0000 0.97498  0.41110  0.66928  Biso   1.000  O
  O28      1.0000 0.97778  0.33985  0.91759  Biso   1.000  O
  O29      1.0000 0.76998  0.12913  0.94618  Biso   1.000  O
  O30      1.0000 0.78622  0.11937  0.69151  Biso   1.000  O
  O31      1.0000 0.73786  0.38639  0.94338  Biso   1.000  O
  O32      1.0000 0.73448  0.37881  0.69474  Biso   1.000  O
  Zr17     1.0000 0.13862  0.52293  0.17423  Biso   1.000  Zr
  Zr18     1.0000 0.13690  0.72831  0.42320  Biso   1.000  Zr
  Zr19     1.0000 0.35820  0.76970  0.17684  Biso   1.000  Zr
  Zr20     1.0000 0.36106  0.97720  0.42614  Biso   1.000  Zr
  Zr21     1.0000 0.64193  0.53641  0.07733  Biso   1.000  Zr
  Zr22     1.0000 0.63881  0.72928  0.33050  Biso   1.000  Zr
  Zr23     1.0000 0.86578  0.77069  0.07821  Biso   1.000  Zr
  Zr24     1.0000 0.86163  0.98076  0.32743  Biso   1.000  Zr
  O33      1.0000 0.03311  0.66253  0.07998  Biso   1.000  O
  O34      1.0000 0.02935  0.59065  0.33063  Biso   1.000  O
  O35      1.0000 0.46574  0.90039  0.07792  Biso   1.000  O
  O36      1.0000 0.46973  0.84000  0.33247  Biso   1.000  O
  O37      1.0000 0.27378  0.62427  0.29905  Biso   1.000  O
  O38      1.0000 0.27430  0.62624  0.04694  Biso   1.000  O
  O39      1.0000 0.22424  0.87387  0.29924  Biso   1.000  O
  O40      1.0000 0.22274  0.87562  0.04907  Biso   1.000  O
  O41      1.0000 0.53137  0.66701  0.17382  Biso   1.000  O
  O42      1.0000 0.52962  0.58793  0.42034  Biso   1.000  O
  O43      1.0000 0.96747  0.91418  0.16984  Biso   1.000  O
  O44      1.0000 0.96873  0.84085  0.42095  Biso   1.000  O
  O45      1.0000 0.77520  0.62433  0.45359  Biso   1.000  O
  O46      1.0000 0.77864  0.62945  0.20489  Biso   1.000  O
  O47      1.0000 0.72653  0.87432  0.45576  Biso   1.000  O
  O48      1.0000 0.72972  0.87051  0.20862  Biso   1.000  O
  Zr25     1.0000 0.14206  0.52100  0.67312  Biso   1.000  Zr
  Zr26     1.0000 0.13995  0.73086  0.92227  Biso   1.000  Zr
  Zr27     1.0000 0.36294  0.77068  0.67405  Biso   1.000  Zr
  Zr28     1.0000 0.36124  0.97709  0.92414  Biso   1.000  Zr
  Zr29     1.0000 0.64053  0.52319  0.57535  Biso   1.000  Zr
  Zr30     1.0000 0.64088  0.72916  0.82562  Biso   1.000  Zr
  Zr31     1.0000 0.86471  0.77181  0.57973  Biso   1.000  Zr
  Zr32     1.0000 0.86351  0.98194  0.82980  Biso   1.000  Zr
  O49      1.0000 0.03296  0.66197  0.58092  Biso   1.000  O
  O50      1.0000 0.03622  0.58963  0.83000  Biso   1.000  O
  O51      1.0000 0.47159  0.90755  0.58070  Biso   1.000  O
  O52      1.0000 0.47133  0.83808  0.82963  Biso   1.000  O
  O53      1.0000 0.27773  0.62505  0.79757  Biso   1.000  O
  O54      1.0000 0.27503  0.62459  0.54755  Biso   1.000  O
  O55      1.0000 0.22662  0.87387  0.79776  Biso   1.000  O
  O56      1.0000 0.22619  0.87538  0.54845  Biso   1.000  O
  O57      1.0000 0.53242  0.66096  0.66942  Biso   1.000  O
  O58      1.0000 0.53115  0.58871  0.91923  Biso   1.000  O
  O59      1.0000 0.97157  0.91048  0.67168  Biso   1.000  O
  O60      1.0000 0.97102  0.83979  0.92055  Biso   1.000  O
  O61      1.0000 0.77936  0.63060  0.95055  Biso   1.000  O
  O62      1.0000 0.77716  0.62679  0.70188  Biso   1.000  O
  O63      1.0000 0.72817  0.87379  0.95530  Biso   1.000  O
  O64      1.0000 0.72794  0.87462  0.70646  Biso   1.000  O
  Ce1      1.0000 0.58995  0.26095  0.04313  Biso   1.000  Ce
