data_image0
_cell_length_a       5.10423
_cell_length_b       10.3082
_cell_length_c       10.1469
_cell_angle_alpha    91.5845
_cell_angle_beta     86.6831
_cell_angle_gamma    90.2633

_symmetry_space_group_name_H-M    "P 1"
_symmetry_int_tables_number       1

loop_
  _symmetry_equiv_pos_as_xyz
  'x, y, z'

loop_
  _atom_site_label
  _atom_site_occupancy
  _atom_site_fract_x
  _atom_site_fract_y
  _atom_site_fract_z
  _atom_site_thermal_displace_type
  _atom_site_B_iso_or_equiv
  _atom_site_type_symbol
  Zr1      1.0000 0.26392  0.96102  0.13288  Biso   1.000  Zr
  Zr2      1.0000 0.28747  0.25008  0.37377  Biso   1.000  Zr
  Zr3      1.0000 0.71476  0.26433  0.12267  Biso   1.000  Zr
  Zr4      1.0000 0.79004  0.01186  0.38652  Biso   1.000  Zr
  O1       1.0000 0.96112  0.15034  0.98865  Biso   1.000  O
  O2       1.0000 0.11446  0.09233  0.26991  Biso   1.000  O
  O3       1.0000 0.02099  0.34356  0.24087  Biso   1.000  O
  O4       1.0000 0.93841  0.40745  0.99295  Biso   1.000  O
  O5       1.0000 0.63496  0.16232  0.29054  Biso   1.000  O
  O6       1.0000 0.49689  0.09168  0.03417  Biso   1.000  O
  O7       1.0000 0.41618  0.33499  0.01466  Biso   1.000  O
  O8       1.0000 0.50594  0.41244  0.25357  Biso   1.000  O
  Zr5      1.0000 0.25804  0.00294  0.64274  Biso   1.000  Zr
  Zr6      1.0000 0.18888  0.26610  0.86583  Biso   1.000  Zr
  Zr7      1.0000 0.72580  0.24021  0.63660  Biso   1.000  Zr
  Zr8      1.0000 0.74050  0.99829  0.89003  Biso   1.000  Zr
  O9       1.0000 0.99951  0.15480  0.50529  Biso   1.000  O
  O10      1.0000 0.97330  0.10916  0.74963  Biso   1.000  O
  O11      1.0000 0.97543  0.36657  0.73718  Biso   1.000  O
  O12      1.0000 0.06927  0.40444  0.48222  Biso   1.000  O
  O13      1.0000 0.47722  0.14557  0.77328  Biso   1.000  O
  O14      1.0000 0.50154  0.10737  0.51948  Biso   1.000  O
  O15      1.0000 0.55437  0.35896  0.50314  Biso   1.000  O
  O16      1.0000 0.47478  0.39595  0.75198  Biso   1.000  O
  Zr9      1.0000 0.24007  0.49810  0.12659  Biso   1.000  Zr
  Zr10     1.0000 0.28810  0.76210  0.38696  Biso   1.000  Zr
  Zr11     1.0000 0.75522  0.75054  0.13499  Biso   1.000  Zr
  Zr12     1.0000 0.78642  0.48888  0.38095  Biso   1.000  Zr
  O17      1.0000 0.93851  0.65816  0.97477  Biso   1.000  O
  O18      1.0000 0.92176  0.59096  0.22200  Biso   1.000  O
  O19      1.0000 0.00832  0.84431  0.26252  Biso   1.000  O
  O20      1.0000 0.98984  0.89619  0.01018  Biso   1.000  O
  O21      1.0000 0.41887  0.66230  0.21766  Biso   1.000  O
  O22      1.0000 0.42693  0.58316  0.96734  Biso   1.000  O
  O23      1.0000 0.50072  0.83762  0.99968  Biso   1.000  O
  O24      1.0000 0.53091  0.89858  0.26036  Biso   1.000  O
  Zr13     1.0000 0.28203  0.50107  0.61472  Biso   1.000  Zr
  Zr14     1.0000 0.24917  0.74445  0.86894  Biso   1.000  Zr
  Zr15     1.0000 0.77965  0.75984  0.62179  Biso   1.000  Zr
  Zr16     1.0000 0.75227  0.51493  0.85699  Biso   1.000  Zr
  O25      1.0000 0.00163  0.64992  0.48350  Biso   1.000  O
  O26      1.0000 0.02364  0.61307  0.73374  Biso   1.000  O
  O27      1.0000 0.99295  0.85975  0.75864  Biso   1.000  O
  O28      1.0000 0.04252  0.90071  0.50878  Biso   1.000  O
  O29      1.0000 0.52190  0.64850  0.73334  Biso   1.000  O
  O30      1.0000 0.50513  0.61031  0.47907  Biso   1.000  O
  O31      1.0000 0.54267  0.86200  0.50477  Biso   1.000  O
  O32      1.0000 0.49170  0.89770  0.75845  Biso   1.000  O
  Co1      1.0000 0.21285  0.20576  0.12307  Biso   1.000  Co
