data_image0
_cell_length_a       10.15
_cell_length_b       5.11646
_cell_length_c       10.5219
_cell_angle_alpha    90.0651
_cell_angle_beta     80.9243
_cell_angle_gamma    89.1553

_symmetry_space_group_name_H-M    "P 1"
_symmetry_int_tables_number       1

loop_
  _symmetry_equiv_pos_as_xyz
  'x, y, z'

loop_
  _atom_site_label
  _atom_site_occupancy
  _atom_site_fract_x
  _atom_site_fract_y
  _atom_site_fract_z
  _atom_site_thermal_displace_type
  _atom_site_B_iso_or_equiv
  _atom_site_type_symbol
  Co1      1.0000 0.12195  0.02232  0.16994  Biso   1.000  Co
  Zr1      1.0000 0.13797  0.03938  0.64249  Biso   1.000  Zr
  Zr2      1.0000 0.63560  0.04146  0.14380  Biso   1.000  Zr
  Zr3      1.0000 0.63760  0.04297  0.64774  Biso   1.000  Zr
  Zr4      1.0000 0.13700  0.45585  0.38957  Biso   1.000  Zr
  Zr5      1.0000 0.14299  0.45623  0.89303  Biso   1.000  Zr
  Zr6      1.0000 0.63678  0.45588  0.39464  Biso   1.000  Zr
  Zr7      1.0000 0.63802  0.46281  0.89876  Biso   1.000  Zr
  Zr8      1.0000 0.35178  0.55381  0.10072  Biso   1.000  Zr
  Zr9      1.0000 0.36127  0.54659  0.60385  Biso   1.000  Zr
  Zr10     1.0000 0.87005  0.52791  0.10822  Biso   1.000  Zr
  Zr11     1.0000 0.85973  0.53841  0.60731  Biso   1.000  Zr
  Zr12     1.0000 0.35825  0.96038  0.34958  Biso   1.000  Zr
  Zr13     1.0000 0.36035  0.97325  0.85733  Biso   1.000  Zr
  Zr14     1.0000 0.85710  0.95264  0.35721  Biso   1.000  Zr
  Zr15     1.0000 0.86431  0.95380  0.85829  Biso   1.000  Zr
  O1       1.0000 0.04832  0.29088  0.08486  Biso   1.000  O
  O2       1.0000 0.03010  0.31405  0.56809  Biso   1.000  O
  O3       1.0000 0.53169  0.33120  0.07586  Biso   1.000  O
  O4       1.0000 0.53318  0.33006  0.57425  Biso   1.000  O
  O5       1.0000 0.03324  0.15772  0.32153  Biso   1.000  O
  O6       1.0000 0.03423  0.17254  0.82561  Biso   1.000  O
  O7       1.0000 0.53098  0.17168  0.32495  Biso   1.000  O
  O8       1.0000 0.53514  0.18126  0.82419  Biso   1.000  O
  O9       1.0000 0.46604  0.82332  0.17599  Biso   1.000  O
  O10      1.0000 0.46654  0.83130  0.67448  Biso   1.000  O
  O11      1.0000 0.97731  0.81966  0.17619  Biso   1.000  O
  O12      1.0000 0.96969  0.81424  0.67875  Biso   1.000  O
  O13      1.0000 0.46525  0.67457  0.42271  Biso   1.000  O
  O14      1.0000 0.47030  0.69436  0.92796  Biso   1.000  O
  O15      1.0000 0.96376  0.66511  0.42505  Biso   1.000  O
  O16      1.0000 0.96922  0.66311  0.93312  Biso   1.000  O
  O17      1.0000 0.26217  0.24594  0.22714  Biso   1.000  O
  O18      1.0000 0.27306  0.25466  0.73068  Biso   1.000  O
  O19      1.0000 0.77518  0.24726  0.24046  Biso   1.000  O
  O20      1.0000 0.77781  0.25510  0.74184  Biso   1.000  O
  O21      1.0000 0.27553  0.24754  0.48269  Biso   1.000  O
  O22      1.0000 0.29616  0.29835  0.96693  Biso   1.000  O
  O23      1.0000 0.77517  0.23956  0.49076  Biso   1.000  O
  O24      1.0000 0.77867  0.24296  0.99261  Biso   1.000  O
  O25      1.0000 0.22033  0.81051  0.01831  Biso   1.000  O
  O26      1.0000 0.22216  0.75609  0.50639  Biso   1.000  O
  O27      1.0000 0.72924  0.75403  0.01345  Biso   1.000  O
  O28      1.0000 0.72227  0.75312  0.51178  Biso   1.000  O
  O29      1.0000 0.21300  0.75287  0.25698  Biso   1.000  O
  O30      1.0000 0.22635  0.74297  0.76156  Biso   1.000  O
  O31      1.0000 0.73121  0.73491  0.25935  Biso   1.000  O
  O32      1.0000 0.72595  0.74535  0.76300  Biso   1.000  O
