data_image0
_cell_length_a       10.016
_cell_length_b       5.22479
_cell_length_c       10.0239
_cell_angle_alpha    91.9458
_cell_angle_beta     89.3269
_cell_angle_gamma    90.1271

_symmetry_space_group_name_H-M    "P 1"
_symmetry_int_tables_number       1

loop_
  _symmetry_equiv_pos_as_xyz
  'x, y, z'

loop_
  _atom_site_label
  _atom_site_occupancy
  _atom_site_fract_x
  _atom_site_fract_y
  _atom_site_fract_z
  _atom_site_thermal_displace_type
  _atom_site_B_iso_or_equiv
  _atom_site_type_symbol
  Cr1      1.0000 0.11444  0.06289  0.11350  Biso   1.000  Cr
  Zr1      1.0000 0.13703  0.03781  0.62928  Biso   1.000  Zr
  Zr2      1.0000 0.63683  0.04191  0.12617  Biso   1.000  Zr
  Zr3      1.0000 0.62394  0.02488  0.61657  Biso   1.000  Zr
  Zr4      1.0000 0.13736  0.44246  0.37222  Biso   1.000  Zr
  Zr5      1.0000 0.13138  0.48555  0.88545  Biso   1.000  Zr
  Zr6      1.0000 0.63847  0.47130  0.37884  Biso   1.000  Zr
  Zr7      1.0000 0.63504  0.47460  0.86718  Biso   1.000  Zr
  Zr8      1.0000 0.38808  0.52330  0.10665  Biso   1.000  Zr
  Zr9      1.0000 0.36365  0.54084  0.63030  Biso   1.000  Zr
  Zr10     1.0000 0.86909  0.53425  0.11892  Biso   1.000  Zr
  Zr11     1.0000 0.87293  0.52876  0.61888  Biso   1.000  Zr
  Zr12     1.0000 0.36462  0.94173  0.37098  Biso   1.000  Zr
  Zr13     1.0000 0.35367  0.98595  0.88716  Biso   1.000  Zr
  Zr14     1.0000 0.87052  0.97172  0.37411  Biso   1.000  Zr
  Zr15     1.0000 0.86296  0.97529  0.86800  Biso   1.000  Zr
  O1       1.0000 0.03539  0.36988  0.18675  Biso   1.000  O
  O2       1.0000 0.03387  0.37057  0.70251  Biso   1.000  O
  O3       1.0000 0.53919  0.37355  0.20515  Biso   1.000  O
  O4       1.0000 0.53227  0.36984  0.69313  Biso   1.000  O
  O5       1.0000 0.03117  0.13583  0.45694  Biso   1.000  O
  O6       1.0000 0.03071  0.14006  0.94939  Biso   1.000  O
  O7       1.0000 0.53616  0.13370  0.43782  Biso   1.000  O
  O8       1.0000 0.51556  0.18415  0.96372  Biso   1.000  O
  O9       1.0000 0.47019  0.87263  0.18992  Biso   1.000  O
  O10      1.0000 0.45926  0.88159  0.70286  Biso   1.000  O
  O11      1.0000 0.98511  0.87641  0.18547  Biso   1.000  O
  O12      1.0000 0.96623  0.86905  0.69144  Biso   1.000  O
  O13      1.0000 0.47718  0.64904  0.46236  Biso   1.000  O
  O14      1.0000 0.46398  0.66524  0.93356  Biso   1.000  O
  O15      1.0000 0.96756  0.63059  0.43521  Biso   1.000  O
  O16      1.0000 0.95540  0.63919  0.93777  Biso   1.000  O
  O17      1.0000 0.22559  0.11401  0.25091  Biso   1.000  O
  O18      1.0000 0.26864  0.25074  0.75734  Biso   1.000  O
  O19      1.0000 0.77756  0.23460  0.24553  Biso   1.000  O
  O20      1.0000 0.76291  0.22646  0.74383  Biso   1.000  O
  O21      1.0000 0.27498  0.25672  0.49892  Biso   1.000  O
  O22      1.0000 0.25421  0.27630  0.01245  Biso   1.000  O
  O23      1.0000 0.76858  0.26655  0.49630  Biso   1.000  O
  O24      1.0000 0.76415  0.27513  0.99428  Biso   1.000  O
  O25      1.0000 0.22772  0.75631  0.50308  Biso   1.000  O
  O26      1.0000 0.22111  0.78525  0.01668  Biso   1.000  O
  O27      1.0000 0.73871  0.77081  0.49546  Biso   1.000  O
  O28      1.0000 0.72536  0.77851  0.99275  Biso   1.000  O
  O29      1.0000 0.27858  0.61682  0.26710  Biso   1.000  O
  O30      1.0000 0.22532  0.74781  0.75828  Biso   1.000  O
  O31      1.0000 0.73861  0.73723  0.24458  Biso   1.000  O
  O32      1.0000 0.73133  0.72880  0.74168  Biso   1.000  O
