data_image0
_cell_length_a       5.05835
_cell_length_b       10.3092
_cell_length_c       10.4315
_cell_angle_alpha    89.9865
_cell_angle_beta     80.3948
_cell_angle_gamma    89.9072

_symmetry_space_group_name_H-M    "P 1"
_symmetry_int_tables_number       1

loop_
  _symmetry_equiv_pos_as_xyz
  'x, y, z'

loop_
  _atom_site_label
  _atom_site_occupancy
  _atom_site_fract_x
  _atom_site_fract_y
  _atom_site_fract_z
  _atom_site_thermal_displace_type
  _atom_site_B_iso_or_equiv
  _atom_site_type_symbol
  Cr1      1.0000 0.26930  0.02529  0.14896  Biso   1.000  Cr
  Zr1      1.0000 0.27529  0.02048  0.64520  Biso   1.000  Zr
  Zr2      1.0000 0.27886  0.52262  0.14549  Biso   1.000  Zr
  Zr3      1.0000 0.27869  0.52148  0.64626  Biso   1.000  Zr
  Zr4      1.0000 0.27906  0.22767  0.39153  Biso   1.000  Zr
  Zr5      1.0000 0.27850  0.22602  0.89820  Biso   1.000  Zr
  Zr6      1.0000 0.28042  0.73119  0.39411  Biso   1.000  Zr
  Zr7      1.0000 0.27559  0.73058  0.89850  Biso   1.000  Zr
  Zr8      1.0000 0.72443  0.26676  0.10649  Biso   1.000  Zr
  Zr9      1.0000 0.72100  0.27127  0.60428  Biso   1.000  Zr
  Zr10     1.0000 0.72150  0.77872  0.10545  Biso   1.000  Zr
  Zr11     1.0000 0.72157  0.77119  0.60507  Biso   1.000  Zr
  Zr12     1.0000 0.72356  0.47961  0.35433  Biso   1.000  Zr
  Zr13     1.0000 0.72167  0.47836  0.85680  Biso   1.000  Zr
  Zr14     1.0000 0.72468  0.97990  0.35003  Biso   1.000  Zr
  Zr15     1.0000 0.71472  0.97975  0.85737  Biso   1.000  Zr
  O1       1.0000 0.07963  0.16133  0.08637  Biso   1.000  O
  O2       1.0000 0.07018  0.16683  0.57568  Biso   1.000  O
  O3       1.0000 0.06933  0.67161  0.08343  Biso   1.000  O
  O4       1.0000 0.07411  0.67167  0.58162  Biso   1.000  O
  O5       1.0000 0.08264  0.07839  0.31685  Biso   1.000  O
  O6       1.0000 0.06731  0.08030  0.83085  Biso   1.000  O
  O7       1.0000 0.07657  0.57800  0.33312  Biso   1.000  O
  O8       1.0000 0.07338  0.57850  0.83392  Biso   1.000  O
  O9       1.0000 0.93028  0.41947  0.16795  Biso   1.000  O
  O10      1.0000 0.92827  0.41936  0.66955  Biso   1.000  O
  O11      1.0000 0.95856  0.92479  0.16310  Biso   1.000  O
  O12      1.0000 0.92495  0.92076  0.66856  Biso   1.000  O
  O13      1.0000 0.92671  0.32760  0.41673  Biso   1.000  O
  O14      1.0000 0.92572  0.32486  0.92121  Biso   1.000  O
  O15      1.0000 0.92720  0.82975  0.41590  Biso   1.000  O
  O16      1.0000 0.91849  0.82848  0.91809  Biso   1.000  O
  O17      1.0000 0.54243  0.12310  0.23539  Biso   1.000  O
  O18      1.0000 0.55107  0.12878  0.74176  Biso   1.000  O
  O19      1.0000 0.55489  0.63217  0.24134  Biso   1.000  O
  O20      1.0000 0.55350  0.62905  0.74256  Biso   1.000  O
  O21      1.0000 0.55639  0.12100  0.48759  Biso   1.000  O
  O22      1.0000 0.54178  0.11762  0.99806  Biso   1.000  O
  O23      1.0000 0.55422  0.62115  0.49139  Biso   1.000  O
  O24      1.0000 0.55351  0.62361  0.99256  Biso   1.000  O
  O25      1.0000 0.44849  0.37864  0.01054  Biso   1.000  O
  O26      1.0000 0.44656  0.37860  0.50901  Biso   1.000  O
  O27      1.0000 0.43383  0.88688  0.01483  Biso   1.000  O
  O28      1.0000 0.44730  0.87935  0.50826  Biso   1.000  O
  O29      1.0000 0.45166  0.36947  0.25874  Biso   1.000  O
  O30      1.0000 0.44677  0.37017  0.76055  Biso   1.000  O
  O31      1.0000 0.45151  0.87678  0.25605  Biso   1.000  O
  O32      1.0000 0.44391  0.87104  0.76036  Biso   1.000  O
