data_image0
_cell_length_a       10.0727
_cell_length_b       10.5484
_cell_length_c       5.07673
_cell_angle_alpha    89.6496
_cell_angle_beta     89.4844
_cell_angle_gamma    89.7729

_symmetry_space_group_name_H-M    "P 1"
_symmetry_int_tables_number       1

loop_
  _symmetry_equiv_pos_as_xyz
  'x, y, z'

loop_
  _atom_site_label
  _atom_site_occupancy
  _atom_site_fract_x
  _atom_site_fract_y
  _atom_site_fract_z
  _atom_site_thermal_displace_type
  _atom_site_B_iso_or_equiv
  _atom_site_type_symbol
  Zr1      1.0000 0.13319  0.00994  0.24760  Biso   1.000  Zr
  Zr2      1.0000 0.13036  0.22462  0.72619  Biso   1.000  Zr
  Zr3      1.0000 0.37682  0.26666  0.24952  Biso   1.000  Zr
  Zr4      1.0000 0.36805  0.48603  0.74479  Biso   1.000  Zr
  O1       1.0000 0.01617  0.16479  0.41069  Biso   1.000  O
  O2       1.0000 0.02835  0.06151  0.90083  Biso   1.000  O
  O3       1.0000 0.47402  0.42964  0.40428  Biso   1.000  O
  O4       1.0000 0.47125  0.32067  0.90100  Biso   1.000  O
  O5       1.0000 0.26583  0.10434  0.51230  Biso   1.000  O
  O6       1.0000 0.24271  0.15951  0.03753  Biso   1.000  O
  O7       1.0000 0.23676  0.39751  0.99655  Biso   1.000  O
  O8       1.0000 0.23432  0.36227  0.48649  Biso   1.000  O
  Zr5      1.0000 0.13728  0.53038  0.23801  Biso   1.000  Zr
  Zr6      1.0000 0.13337  0.73898  0.74042  Biso   1.000  Zr
  Zr7      1.0000 0.37173  0.76262  0.24113  Biso   1.000  Zr
  Zr8      1.0000 0.37606  0.97940  0.73405  Biso   1.000  Zr
  O9       1.0000 0.02902  0.68274  0.40476  Biso   1.000  O
  O10      1.0000 0.03242  0.57267  0.89030  Biso   1.000  O
  O11      1.0000 0.47146  0.92488  0.39408  Biso   1.000  O
  O12      1.0000 0.47359  0.81673  0.89030  Biso   1.000  O
  O13      1.0000 0.27497  0.61826  0.49059  Biso   1.000  O
  O14      1.0000 0.26951  0.64506  0.98323  Biso   1.000  O
  O15      1.0000 0.23882  0.89296  0.98508  Biso   1.000  O
  O16      1.0000 0.23434  0.86103  0.48214  Biso   1.000  O
  Zr9      1.0000 0.63592  0.01148  0.24750  Biso   1.000  Zr
  Zr10     1.0000 0.63217  0.23306  0.74711  Biso   1.000  Zr
  Zr11     1.0000 0.85789  0.25954  0.24240  Biso   1.000  Zr
  Zr12     1.0000 0.87250  0.48016  0.74417  Biso   1.000  Zr
  O17      1.0000 0.52992  0.17224  0.41627  Biso   1.000  O
  O18      1.0000 0.52157  0.07312  0.91861  Biso   1.000  O
  O19      1.0000 0.98055  0.41667  0.39636  Biso   1.000  O
  O20      1.0000 0.97535  0.32123  0.91507  Biso   1.000  O
  O21      1.0000 0.76301  0.10904  0.49495  Biso   1.000  O
  O22      1.0000 0.76334  0.13096  0.98911  Biso   1.000  O
  O23      1.0000 0.73309  0.38369  0.99111  Biso   1.000  O
  O24      1.0000 0.73355  0.36367  0.49727  Biso   1.000  O
  Zr13     1.0000 0.63672  0.51369  0.24688  Biso   1.000  Zr
  Zr14     1.0000 0.63697  0.72933  0.74575  Biso   1.000  Zr
  Zr15     1.0000 0.86621  0.76275  0.24552  Biso   1.000  Zr
  Zr16     1.0000 0.86795  0.98166  0.74456  Biso   1.000  Zr
  O25      1.0000 0.53742  0.67905  0.39295  Biso   1.000  O
  O26      1.0000 0.53151  0.56814  0.90007  Biso   1.000  O
  O27      1.0000 0.96789  0.92501  0.39915  Biso   1.000  O
  O28      1.0000 0.96959  0.81819  0.90219  Biso   1.000  O
  O29      1.0000 0.77212  0.60946  0.49185  Biso   1.000  O
  O30      1.0000 0.77038  0.63162  0.99147  Biso   1.000  O
  O31      1.0000 0.73228  0.88274  0.99230  Biso   1.000  O
  O32      1.0000 0.73253  0.86044  0.49304  Biso   1.000  O
  Cr1      1.0000 0.10975  0.29954  0.20820  Biso   1.000  Cr
