data_image0
_cell_length_a       10.0394
_cell_length_b       10.2644
_cell_length_c       5.22937
_cell_angle_alpha    89.7374
_cell_angle_beta     89.9338
_cell_angle_gamma    89.9819

_symmetry_space_group_name_H-M    "P 1"
_symmetry_int_tables_number       1

loop_
  _symmetry_equiv_pos_as_xyz
  'x, y, z'

loop_
  _atom_site_label
  _atom_site_occupancy
  _atom_site_fract_x
  _atom_site_fract_y
  _atom_site_fract_z
  _atom_site_thermal_displace_type
  _atom_site_B_iso_or_equiv
  _atom_site_type_symbol
  Cr1      1.0000 0.13030  0.02537  0.35705  Biso   1.000  Cr
  Zr1      1.0000 0.14005  0.52086  0.34372  Biso   1.000  Zr
  Zr2      1.0000 0.14027  0.22564  0.84814  Biso   1.000  Zr
  Zr3      1.0000 0.14069  0.73222  0.83912  Biso   1.000  Zr
  Zr4      1.0000 0.35829  0.26771  0.34596  Biso   1.000  Zr
  Zr5      1.0000 0.35661  0.77592  0.33874  Biso   1.000  Zr
  Zr6      1.0000 0.36127  0.47906  0.84350  Biso   1.000  Zr
  Zr7      1.0000 0.35626  0.97869  0.84305  Biso   1.000  Zr
  Zr8      1.0000 0.63775  0.02139  0.15394  Biso   1.000  Zr
  Zr9      1.0000 0.63810  0.52191  0.16242  Biso   1.000  Zr
  Zr10     1.0000 0.63837  0.22965  0.65868  Biso   1.000  Zr
  Zr11     1.0000 0.63753  0.72988  0.65746  Biso   1.000  Zr
  Zr12     1.0000 0.86350  0.26888  0.16145  Biso   1.000  Zr
  Zr13     1.0000 0.86480  0.77213  0.15522  Biso   1.000  Zr
  Zr14     1.0000 0.86188  0.47893  0.66118  Biso   1.000  Zr
  Zr15     1.0000 0.86277  0.98079  0.65296  Biso   1.000  Zr
  O1       1.0000 0.03289  0.15215  0.16282  Biso   1.000  O
  O2       1.0000 0.03281  0.66471  0.16545  Biso   1.000  O
  O3       1.0000 0.03571  0.08839  0.63464  Biso   1.000  O
  O4       1.0000 0.03320  0.58422  0.66819  Biso   1.000  O
  O5       1.0000 0.46563  0.41651  0.17366  Biso   1.000  O
  O6       1.0000 0.46840  0.91535  0.16655  Biso   1.000  O
  O7       1.0000 0.46532  0.33185  0.67291  Biso   1.000  O
  O8       1.0000 0.46371  0.83475  0.66911  Biso   1.000  O
  O9       1.0000 0.27198  0.12232  0.59403  Biso   1.000  O
  O10      1.0000 0.27625  0.62656  0.58950  Biso   1.000  O
  O11      1.0000 0.26707  0.11772  0.11129  Biso   1.000  O
  O12      1.0000 0.27606  0.62558  0.08919  Biso   1.000  O
  O13      1.0000 0.22418  0.37469  0.59215  Biso   1.000  O
  O14      1.0000 0.21825  0.88138  0.57659  Biso   1.000  O
  O15      1.0000 0.22418  0.37264  0.09063  Biso   1.000  O
  O16      1.0000 0.22174  0.87558  0.08411  Biso   1.000  O
  O17      1.0000 0.53268  0.16612  0.33255  Biso   1.000  O
  O18      1.0000 0.53318  0.66928  0.32956  Biso   1.000  O
  O19      1.0000 0.53018  0.08602  0.83447  Biso   1.000  O
  O20      1.0000 0.53482  0.58235  0.82917  Biso   1.000  O
  O21      1.0000 0.96925  0.41238  0.33595  Biso   1.000  O
  O22      1.0000 0.98365  0.92071  0.32761  Biso   1.000  O
  O23      1.0000 0.96854  0.33059  0.83586  Biso   1.000  O
  O24      1.0000 0.96776  0.83657  0.82855  Biso   1.000  O
  O25      1.0000 0.77742  0.12360  0.90549  Biso   1.000  O
  O26      1.0000 0.77718  0.62620  0.91422  Biso   1.000  O
  O27      1.0000 0.77535  0.12536  0.40736  Biso   1.000  O
  O28      1.0000 0.77682  0.62591  0.41330  Biso   1.000  O
  O29      1.0000 0.72535  0.37391  0.91460  Biso   1.000  O
  O30      1.0000 0.72440  0.87524  0.90714  Biso   1.000  O
  O31      1.0000 0.72508  0.37575  0.41301  Biso   1.000  O
  O32      1.0000 0.73251  0.87660  0.40776  Biso   1.000  O
