data_image0
_cell_length_a       10.076
_cell_length_b       5.24515
_cell_length_c       10.1572
_cell_angle_alpha    89.8044
_cell_angle_beta     89.5254
_cell_angle_gamma    90.2454

_symmetry_space_group_name_H-M    "P 1"
_symmetry_int_tables_number       1

loop_
  _symmetry_equiv_pos_as_xyz
  'x, y, z'

loop_
  _atom_site_label
  _atom_site_occupancy
  _atom_site_fract_x
  _atom_site_fract_y
  _atom_site_fract_z
  _atom_site_thermal_displace_type
  _atom_site_B_iso_or_equiv
  _atom_site_type_symbol
  Cs1      1.0000 0.11022  0.01618  0.11630  Biso   1.000  Cs
  Zr1      1.0000 0.13085  0.04216  0.63717  Biso   1.000  Zr
  Zr2      1.0000 0.63594  0.02447  0.12779  Biso   1.000  Zr
  Zr3      1.0000 0.63101  0.03361  0.62583  Biso   1.000  Zr
  Zr4      1.0000 0.13773  0.47015  0.38656  Biso   1.000  Zr
  Zr5      1.0000 0.13567  0.47058  0.86819  Biso   1.000  Zr
  Zr6      1.0000 0.62963  0.46815  0.37696  Biso   1.000  Zr
  Zr7      1.0000 0.63588  0.46088  0.87585  Biso   1.000  Zr
  Zr8      1.0000 0.36850  0.52306  0.13577  Biso   1.000  Zr
  Zr9      1.0000 0.36656  0.53328  0.62859  Biso   1.000  Zr
  Zr10     1.0000 0.85622  0.52248  0.12558  Biso   1.000  Zr
  Zr11     1.0000 0.86591  0.53205  0.61898  Biso   1.000  Zr
  Zr12     1.0000 0.36172  0.96875  0.38023  Biso   1.000  Zr
  Zr13     1.0000 0.37076  0.96092  0.87783  Biso   1.000  Zr
  Zr14     1.0000 0.86279  0.97692  0.38627  Biso   1.000  Zr
  Zr15     1.0000 0.86356  0.95774  0.86404  Biso   1.000  Zr
  O1       1.0000 0.02754  0.42567  0.20754  Biso   1.000  O
  O2       1.0000 0.04761  0.40502  0.66972  Biso   1.000  O
  O3       1.0000 0.54352  0.36679  0.19223  Biso   1.000  O
  O4       1.0000 0.53726  0.36749  0.69651  Biso   1.000  O
  O5       1.0000 0.03605  0.12979  0.44273  Biso   1.000  O
  O6       1.0000 0.04295  0.12362  0.86583  Biso   1.000  O
  O7       1.0000 0.53474  0.13328  0.44762  Biso   1.000  O
  O8       1.0000 0.53796  0.12762  0.94788  Biso   1.000  O
  O9       1.0000 0.47095  0.86027  0.19976  Biso   1.000  O
  O10      1.0000 0.46628  0.86539  0.69922  Biso   1.000  O
  O11      1.0000 0.93188  0.89499  0.18867  Biso   1.000  O
  O12      1.0000 0.95098  0.87665  0.67329  Biso   1.000  O
  O13      1.0000 0.46496  0.63233  0.45107  Biso   1.000  O
  O14      1.0000 0.46913  0.62545  0.94538  Biso   1.000  O
  O15      1.0000 0.96014  0.63752  0.43701  Biso   1.000  O
  O16      1.0000 0.96965  0.63465  0.94655  Biso   1.000  O
  O17      1.0000 0.28371  0.24948  0.26326  Biso   1.000  O
  O18      1.0000 0.27929  0.24532  0.75530  Biso   1.000  O
  O19      1.0000 0.76638  0.23428  0.25290  Biso   1.000  O
  O20      1.0000 0.77008  0.23393  0.74671  Biso   1.000  O
  O21      1.0000 0.26928  0.26148  0.50945  Biso   1.000  O
  O22      1.0000 0.26315  0.24346  0.00411  Biso   1.000  O
  O23      1.0000 0.76624  0.26869  0.49905  Biso   1.000  O
  O24      1.0000 0.77842  0.25173  0.99678  Biso   1.000  O
  O25      1.0000 0.22774  0.77021  0.50900  Biso   1.000  O
  O26      1.0000 0.24708  0.72939  0.99703  Biso   1.000  O
  O27      1.0000 0.72637  0.76498  0.50106  Biso   1.000  O
  O28      1.0000 0.72859  0.75320  0.99936  Biso   1.000  O
  O29      1.0000 0.24666  0.71395  0.26558  Biso   1.000  O
  O30      1.0000 0.23068  0.74424  0.75243  Biso   1.000  O
  O31      1.0000 0.73274  0.73597  0.25217  Biso   1.000  O
  O32      1.0000 0.73065  0.73028  0.74968  Biso   1.000  O
