data_image0
_cell_length_a       10.3341
_cell_length_b       5.21315
_cell_length_c       10.8035
_cell_angle_alpha    90.7771
_cell_angle_beta     78.8631
_cell_angle_gamma    90.6793

_symmetry_space_group_name_H-M    "P 1"
_symmetry_int_tables_number       1

loop_
  _symmetry_equiv_pos_as_xyz
  'x, y, z'

loop_
  _atom_site_label
  _atom_site_occupancy
  _atom_site_fract_x
  _atom_site_fract_y
  _atom_site_fract_z
  _atom_site_thermal_displace_type
  _atom_site_B_iso_or_equiv
  _atom_site_type_symbol
  Zr1      1.0000 0.12544  0.05267  0.14725  Biso   1.000  Zr
  Zr2      1.0000 0.13116  0.46206  0.39218  Biso   1.000  Zr
  Zr3      1.0000 0.34388  0.57083  0.07996  Biso   1.000  Zr
  Zr4      1.0000 0.36803  0.93253  0.37371  Biso   1.000  Zr
  O1       1.0000 0.02499  0.31775  0.06627  Biso   1.000  O
  O2       1.0000 0.02051  0.17386  0.32814  Biso   1.000  O
  O3       1.0000 0.46527  0.87645  0.18076  Biso   1.000  O
  O4       1.0000 0.48017  0.69744  0.45772  Biso   1.000  O
  O5       1.0000 0.24211  0.29702  0.22190  Biso   1.000  O
  O6       1.0000 0.27284  0.23593  0.48296  Biso   1.000  O
  O7       1.0000 0.21403  0.78473  0.00427  Biso   1.000  O
  O8       1.0000 0.22567  0.77031  0.26221  Biso   1.000  O
  Zr5      1.0000 0.13512  0.04546  0.64169  Biso   1.000  Zr
  Zr6      1.0000 0.12872  0.46124  0.88922  Biso   1.000  Zr
  Zr7      1.0000 0.36339  0.54631  0.61489  Biso   1.000  Zr
  Zr8      1.0000 0.35701  0.97561  0.85155  Biso   1.000  Zr
  O9       1.0000 0.03083  0.32091  0.57315  Biso   1.000  O
  O10      1.0000 0.02536  0.18384  0.81867  Biso   1.000  O
  O11      1.0000 0.46988  0.81754  0.68810  Biso   1.000  O
  O12      1.0000 0.46712  0.71414  0.92595  Biso   1.000  O
  O13      1.0000 0.26858  0.25257  0.73439  Biso   1.000  O
  O14      1.0000 0.26783  0.27437  0.97707  Biso   1.000  O
  O15      1.0000 0.22702  0.74229  0.51615  Biso   1.000  O
  O16      1.0000 0.22412  0.74636  0.76101  Biso   1.000  O
  Zr9      1.0000 0.64863  0.02181  0.15328  Biso   1.000  Zr
  Zr10     1.0000 0.65467  0.44172  0.41292  Biso   1.000  Zr
  Zr11     1.0000 0.85834  0.53376  0.10542  Biso   1.000  Zr
  Zr12     1.0000 0.85634  0.94601  0.35739  Biso   1.000  Zr
  O17      1.0000 0.51590  0.32473  0.04988  Biso   1.000  O
  O18      1.0000 0.57315  0.09241  0.35534  Biso   1.000  O
  O19      1.0000 0.96407  0.81051  0.18221  Biso   1.000  O
  O20      1.0000 0.96733  0.67875  0.43139  Biso   1.000  O
  O21      1.0000 0.78575  0.24658  0.24237  Biso   1.000  O
  O22      1.0000 0.78054  0.23504  0.50000  Biso   1.000  O
  O23      1.0000 0.72353  0.74846  0.01481  Biso   1.000  O
  O24      1.0000 0.72359  0.71933  0.26000  Biso   1.000  O
  Zr13     1.0000 0.63804  0.04339  0.65084  Biso   1.000  Zr
  Zr14     1.0000 0.63298  0.45786  0.89741  Biso   1.000  Zr
  Zr15     1.0000 0.86356  0.54309  0.61145  Biso   1.000  Zr
  Zr16     1.0000 0.85735  0.95725  0.85828  Biso   1.000  Zr
  O25      1.0000 0.53223  0.31783  0.58045  Biso   1.000  O
  O26      1.0000 0.52388  0.20172  0.81454  Biso   1.000  O
  O27      1.0000 0.96948  0.81857  0.68134  Biso   1.000  O
  O28      1.0000 0.96410  0.68486  0.92862  Biso   1.000  O
  O29      1.0000 0.77233  0.25895  0.74564  Biso   1.000  O
  O30      1.0000 0.76800  0.24091  0.99446  Biso   1.000  O
  O31      1.0000 0.72924  0.74628  0.51882  Biso   1.000  O
  O32      1.0000 0.72508  0.75214  0.76495  Biso   1.000  O
  Cs1      1.0000 0.45412  0.42602  0.27400  Biso   1.000  Cs
