data_image0
_cell_length_a       10.0659
_cell_length_b       10.2915
_cell_length_c       5.23049
_cell_angle_alpha    89.6105
_cell_angle_beta     91.2971
_cell_angle_gamma    89.6581

_symmetry_space_group_name_H-M    "P 1"
_symmetry_int_tables_number       1

loop_
  _symmetry_equiv_pos_as_xyz
  'x, y, z'

loop_
  _atom_site_label
  _atom_site_occupancy
  _atom_site_fract_x
  _atom_site_fract_y
  _atom_site_fract_z
  _atom_site_thermal_displace_type
  _atom_site_B_iso_or_equiv
  _atom_site_type_symbol
  Cu1      1.0000 0.11850  0.01821  0.39525  Biso   1.000  Cu
  Zr1      1.0000 0.13920  0.52125  0.34236  Biso   1.000  Zr
  Zr2      1.0000 0.14520  0.22893  0.84016  Biso   1.000  Zr
  Zr3      1.0000 0.13794  0.73221  0.83694  Biso   1.000  Zr
  Zr4      1.0000 0.35942  0.27002  0.33078  Biso   1.000  Zr
  Zr5      1.0000 0.35749  0.77528  0.32605  Biso   1.000  Zr
  Zr6      1.0000 0.36085  0.48018  0.83992  Biso   1.000  Zr
  Zr7      1.0000 0.35727  0.98140  0.83073  Biso   1.000  Zr
  Zr8      1.0000 0.63684  0.02174  0.15721  Biso   1.000  Zr
  Zr9      1.0000 0.63990  0.52088  0.16116  Biso   1.000  Zr
  Zr10     1.0000 0.63808  0.23021  0.66053  Biso   1.000  Zr
  Zr11     1.0000 0.63624  0.72911  0.65587  Biso   1.000  Zr
  Zr12     1.0000 0.86490  0.26637  0.17154  Biso   1.000  Zr
  Zr13     1.0000 0.86319  0.77085  0.16247  Biso   1.000  Zr
  Zr14     1.0000 0.86358  0.47729  0.66868  Biso   1.000  Zr
  Zr15     1.0000 0.85604  0.97947  0.67067  Biso   1.000  Zr
  O1       1.0000 0.04572  0.15357  0.18760  Biso   1.000  O
  O2       1.0000 0.03577  0.67033  0.17570  Biso   1.000  O
  O3       1.0000 0.03060  0.07910  0.71177  Biso   1.000  O
  O4       1.0000 0.03564  0.57878  0.67722  Biso   1.000  O
  O5       1.0000 0.46647  0.41859  0.16922  Biso   1.000  O
  O6       1.0000 0.46786  0.91849  0.16218  Biso   1.000  O
  O7       1.0000 0.46567  0.33130  0.66888  Biso   1.000  O
  O8       1.0000 0.46157  0.83311  0.66050  Biso   1.000  O
  O9       1.0000 0.25818  0.11761  0.54780  Biso   1.000  O
  O10      1.0000 0.27483  0.62878  0.58435  Biso   1.000  O
  O11      1.0000 0.30042  0.14442  0.03744  Biso   1.000  O
  O12      1.0000 0.27517  0.62466  0.08494  Biso   1.000  O
  O13      1.0000 0.22594  0.37354  0.58978  Biso   1.000  O
  O14      1.0000 0.21290  0.87932  0.56364  Biso   1.000  O
  O15      1.0000 0.22064  0.37978  0.08939  Biso   1.000  O
  O16      1.0000 0.23073  0.87391  0.06123  Biso   1.000  O
  O17      1.0000 0.53526  0.16994  0.32350  Biso   1.000  O
  O18      1.0000 0.53362  0.66959  0.32161  Biso   1.000  O
  O19      1.0000 0.53727  0.07839  0.81541  Biso   1.000  O
  O20      1.0000 0.53471  0.58129  0.82369  Biso   1.000  O
  O21      1.0000 0.96897  0.41215  0.34324  Biso   1.000  O
  O22      1.0000 0.96619  0.92599  0.33708  Biso   1.000  O
  O23      1.0000 0.96863  0.32919  0.85082  Biso   1.000  O
  O24      1.0000 0.96139  0.82849  0.82991  Biso   1.000  O
  O25      1.0000 0.77681  0.12403  0.91899  Biso   1.000  O
  O26      1.0000 0.77698  0.62441  0.91801  Biso   1.000  O
  O27      1.0000 0.77662  0.12581  0.41806  Biso   1.000  O
  O28      1.0000 0.77683  0.62499  0.41727  Biso   1.000  O
  O29      1.0000 0.72694  0.37335  0.91939  Biso   1.000  O
  O30      1.0000 0.72184  0.87349  0.91310  Biso   1.000  O
  O31      1.0000 0.72709  0.37482  0.41628  Biso   1.000  O
  O32      1.0000 0.72808  0.87543  0.41168  Biso   1.000  O
