data_image0
_cell_length_a       9.97949
_cell_length_b       10.4256
_cell_length_c       5.01817
_cell_angle_alpha    90.7705
_cell_angle_beta     89.1074
_cell_angle_gamma    90.4355

_symmetry_space_group_name_H-M    "P 1"
_symmetry_int_tables_number       1

loop_
  _symmetry_equiv_pos_as_xyz
  'x, y, z'

loop_
  _atom_site_label
  _atom_site_occupancy
  _atom_site_fract_x
  _atom_site_fract_y
  _atom_site_fract_z
  _atom_site_thermal_displace_type
  _atom_site_B_iso_or_equiv
  _atom_site_type_symbol
  Fe1      1.0000 0.12365  0.03954  0.21547  Biso   1.000  Fe
  Zr1      1.0000 0.13485  0.51401  0.25259  Biso   1.000  Zr
  Zr2      1.0000 0.62955  0.01375  0.24270  Biso   1.000  Zr
  Zr3      1.0000 0.63342  0.51822  0.25360  Biso   1.000  Zr
  Zr4      1.0000 0.13148  0.23323  0.74006  Biso   1.000  Zr
  Zr5      1.0000 0.13457  0.73455  0.76602  Biso   1.000  Zr
  Zr6      1.0000 0.63164  0.23382  0.74909  Biso   1.000  Zr
  Zr7      1.0000 0.63408  0.73902  0.75117  Biso   1.000  Zr
  Zr8      1.0000 0.36581  0.26205  0.24588  Biso   1.000  Zr
  Zr9      1.0000 0.36560  0.76688  0.26450  Biso   1.000  Zr
  Zr10     1.0000 0.86374  0.26559  0.24302  Biso   1.000  Zr
  Zr11     1.0000 0.87621  0.76637  0.23868  Biso   1.000  Zr
  Zr12     1.0000 0.36718  0.48540  0.75156  Biso   1.000  Zr
  Zr13     1.0000 0.35613  0.98265  0.76355  Biso   1.000  Zr
  Zr14     1.0000 0.86409  0.48599  0.74785  Biso   1.000  Zr
  Zr15     1.0000 0.86881  0.98923  0.73725  Biso   1.000  Zr
  O1       1.0000 0.03391  0.18158  0.37639  Biso   1.000  O
  O2       1.0000 0.03683  0.68494  0.39576  Biso   1.000  O
  O3       1.0000 0.52938  0.18186  0.39914  Biso   1.000  O
  O4       1.0000 0.53412  0.68330  0.40277  Biso   1.000  O
  O5       1.0000 0.03338  0.06543  0.91045  Biso   1.000  O
  O6       1.0000 0.03110  0.56649  0.90106  Biso   1.000  O
  O7       1.0000 0.52714  0.07221  0.90475  Biso   1.000  O
  O8       1.0000 0.53587  0.56979  0.89312  Biso   1.000  O
  O9       1.0000 0.46455  0.43204  0.38835  Biso   1.000  O
  O10      1.0000 0.47344  0.93031  0.41896  Biso   1.000  O
  O11      1.0000 0.96545  0.43054  0.39031  Biso   1.000  O
  O12      1.0000 0.99658  0.94477  0.37897  Biso   1.000  O
  O13      1.0000 0.46261  0.31745  0.89065  Biso   1.000  O
  O14      1.0000 0.46689  0.82331  0.91396  Biso   1.000  O
  O15      1.0000 0.96131  0.31418  0.87737  Biso   1.000  O
  O16      1.0000 0.96227  0.82017  0.87664  Biso   1.000  O
  O17      1.0000 0.25188  0.10101  0.48294  Biso   1.000  O
  O18      1.0000 0.26672  0.60888  0.50352  Biso   1.000  O
  O19      1.0000 0.76697  0.11587  0.48609  Biso   1.000  O
  O20      1.0000 0.77082  0.61697  0.49741  Biso   1.000  O
  O21      1.0000 0.25905  0.13487  0.99627  Biso   1.000  O
  O22      1.0000 0.27016  0.63539  0.00456  Biso   1.000  O
  O23      1.0000 0.76844  0.13435  0.98553  Biso   1.000  O
  O24      1.0000 0.76844  0.63794  0.99889  Biso   1.000  O
  O25      1.0000 0.22825  0.38368  0.99352  Biso   1.000  O
  O26      1.0000 0.22146  0.89491  0.04669  Biso   1.000  O
  O27      1.0000 0.72938  0.38456  0.99690  Biso   1.000  O
  O28      1.0000 0.73276  0.88801  0.98636  Biso   1.000  O
  O29      1.0000 0.23201  0.36103  0.49454  Biso   1.000  O
  O30      1.0000 0.24888  0.84928  0.54661  Biso   1.000  O
  O31      1.0000 0.72826  0.36670  0.49513  Biso   1.000  O
  O32      1.0000 0.74519  0.86686  0.48588  Biso   1.000  O
