data_image0
_cell_length_a       10.1936
_cell_length_b       5.22803
_cell_length_c       10.438
_cell_angle_alpha    90.6379
_cell_angle_beta     79.645
_cell_angle_gamma    90.2071

_symmetry_space_group_name_H-M    "P 1"
_symmetry_int_tables_number       1

loop_
  _symmetry_equiv_pos_as_xyz
  'x, y, z'

loop_
  _atom_site_label
  _atom_site_occupancy
  _atom_site_fract_x
  _atom_site_fract_y
  _atom_site_fract_z
  _atom_site_thermal_displace_type
  _atom_site_B_iso_or_equiv
  _atom_site_type_symbol
  Zr1      1.0000 0.13316  0.05069  0.14210  Biso   1.000  Zr
  Zr2      1.0000 0.14303  0.46123  0.39054  Biso   1.000  Zr
  Zr3      1.0000 0.35077  0.55270  0.10292  Biso   1.000  Zr
  Zr4      1.0000 0.35791  0.91997  0.34658  Biso   1.000  Zr
  O1       1.0000 0.03216  0.35419  0.08033  Biso   1.000  O
  O2       1.0000 0.03344  0.16553  0.32980  Biso   1.000  O
  O3       1.0000 0.45698  0.86911  0.15603  Biso   1.000  O
  O4       1.0000 0.47203  0.65007  0.41957  Biso   1.000  O
  O5       1.0000 0.27483  0.24896  0.23598  Biso   1.000  O
  O6       1.0000 0.29368  0.25825  0.47415  Biso   1.000  O
  O7       1.0000 0.21856  0.77053  0.00229  Biso   1.000  O
  O8       1.0000 0.20459  0.75050  0.25005  Biso   1.000  O
  Zr5      1.0000 0.13724  0.04272  0.64453  Biso   1.000  Zr
  Zr6      1.0000 0.13469  0.46368  0.89354  Biso   1.000  Zr
  Zr7      1.0000 0.36269  0.54458  0.60753  Biso   1.000  Zr
  Zr8      1.0000 0.35985  0.96180  0.85539  Biso   1.000  Zr
  O9       1.0000 0.04264  0.34333  0.58114  Biso   1.000  O
  O10      1.0000 0.03511  0.15510  0.83351  Biso   1.000  O
  O11      1.0000 0.46447  0.84736  0.66919  Biso   1.000  O
  O12      1.0000 0.46171  0.65416  0.91720  Biso   1.000  O
  O13      1.0000 0.27470  0.25747  0.73708  Biso   1.000  O
  O14      1.0000 0.27205  0.25175  0.98729  Biso   1.000  O
  O15      1.0000 0.22422  0.76130  0.51015  Biso   1.000  O
  O16      1.0000 0.22384  0.74285  0.75701  Biso   1.000  O
  Zr9      1.0000 0.63469  0.04274  0.15267  Biso   1.000  Zr
  Zr10     1.0000 0.64708  0.45161  0.40135  Biso   1.000  Zr
  Zr11     1.0000 0.85646  0.54511  0.10673  Biso   1.000  Zr
  Zr12     1.0000 0.86247  0.95588  0.35601  Biso   1.000  Zr
  O17      1.0000 0.52780  0.37409  0.12186  Biso   1.000  O
  O18      1.0000 0.54318  0.12072  0.34875  Biso   1.000  O
  O19      1.0000 0.95809  0.85203  0.16396  Biso   1.000  O
  O20      1.0000 0.96421  0.66268  0.42024  Biso   1.000  O
  O21      1.0000 0.77700  0.26046  0.24386  Biso   1.000  O
  O22      1.0000 0.78079  0.23772  0.49679  Biso   1.000  O
  O23      1.0000 0.72066  0.76339  0.01240  Biso   1.000  O
  O24      1.0000 0.72339  0.74151  0.26221  Biso   1.000  O
  Zr13     1.0000 0.63997  0.04549  0.64934  Biso   1.000  Zr
  Zr14     1.0000 0.63740  0.46898  0.89952  Biso   1.000  Zr
  Zr15     1.0000 0.86433  0.54313  0.60621  Biso   1.000  Zr
  Zr16     1.0000 0.85813  0.96204  0.85858  Biso   1.000  Zr
  O25      1.0000 0.53879  0.34727  0.59024  Biso   1.000  O
  O26      1.0000 0.53674  0.15702  0.84221  Biso   1.000  O
  O27      1.0000 0.96308  0.84636  0.67013  Biso   1.000  O
  O28      1.0000 0.95761  0.65520  0.91506  Biso   1.000  O
  O29      1.0000 0.77608  0.26255  0.74543  Biso   1.000  O
  O30      1.0000 0.76487  0.24621  0.99634  Biso   1.000  O
  O31      1.0000 0.72595  0.75645  0.51436  Biso   1.000  O
  O32      1.0000 0.72334  0.74185  0.76297  Biso   1.000  O
  Fe1      1.0000 0.41481  0.38189  0.31388  Biso   1.000  Fe
