data_image0
_cell_length_a       10.1521
_cell_length_b       10.3715
_cell_length_c       5.30166
_cell_angle_alpha    89.8334
_cell_angle_beta     91.6146
_cell_angle_gamma    90.0543

_symmetry_space_group_name_H-M    "P 1"
_symmetry_int_tables_number       1

loop_
  _symmetry_equiv_pos_as_xyz
  'x, y, z'

loop_
  _atom_site_label
  _atom_site_occupancy
  _atom_site_fract_x
  _atom_site_fract_y
  _atom_site_fract_z
  _atom_site_thermal_displace_type
  _atom_site_B_iso_or_equiv
  _atom_site_type_symbol
  Zr1      1.0000 0.14006  0.01859  0.34922  Biso   1.000  Zr
  Zr2      1.0000 0.13712  0.22614  0.85644  Biso   1.000  Zr
  Zr3      1.0000 0.34412  0.26991  0.37971  Biso   1.000  Zr
  Zr4      1.0000 0.35880  0.48151  0.85046  Biso   1.000  Zr
  Zr5      1.0000 0.64402  0.01755  0.14347  Biso   1.000  Zr
  Zr6      1.0000 0.64494  0.22432  0.66698  Biso   1.000  Zr
  Zr7      1.0000 0.86334  0.26892  0.14776  Biso   1.000  Zr
  Zr8      1.0000 0.86548  0.47974  0.64774  Biso   1.000  Zr
  O1       1.0000 0.03543  0.16628  0.17598  Biso   1.000  O
  O2       1.0000 0.03601  0.08236  0.66816  Biso   1.000  O
  O3       1.0000 0.47135  0.41232  0.17993  Biso   1.000  O
  O4       1.0000 0.46695  0.33325  0.68790  Biso   1.000  O
  O5       1.0000 0.27357  0.12404  0.60701  Biso   1.000  O
  O6       1.0000 0.27675  0.12382  0.10562  Biso   1.000  O
  O7       1.0000 0.21877  0.37490  0.61143  Biso   1.000  O
  O8       1.0000 0.22506  0.37655  0.10871  Biso   1.000  O
  O9       1.0000 0.51797  0.15804  0.36281  Biso   1.000  O
  O10      1.0000 0.53496  0.07105  0.82123  Biso   1.000  O
  O11      1.0000 0.96451  0.41580  0.33173  Biso   1.000  O
  O12      1.0000 0.97013  0.33328  0.83492  Biso   1.000  O
  O13      1.0000 0.79148  0.11792  0.89236  Biso   1.000  O
  O14      1.0000 0.77495  0.12328  0.39849  Biso   1.000  O
  O15      1.0000 0.73377  0.38951  0.88854  Biso   1.000  O
  O16      1.0000 0.71410  0.37123  0.38563  Biso   1.000  O
  Zr9      1.0000 0.13787  0.52219  0.34534  Biso   1.000  Zr
  Zr10     1.0000 0.13996  0.72863  0.84622  Biso   1.000  Zr
  Zr11     1.0000 0.36213  0.77102  0.35143  Biso   1.000  Zr
  Zr12     1.0000 0.36241  0.97535  0.85412  Biso   1.000  Zr
  Zr13     1.0000 0.64746  0.53829  0.14752  Biso   1.000  Zr
  Zr14     1.0000 0.64012  0.73126  0.65406  Biso   1.000  Zr
  Zr15     1.0000 0.86495  0.77291  0.15355  Biso   1.000  Zr
  Zr16     1.0000 0.86507  0.97743  0.65100  Biso   1.000  Zr
  O17      1.0000 0.03438  0.66494  0.16635  Biso   1.000  O
  O18      1.0000 0.03542  0.58353  0.66990  Biso   1.000  O
  O19      1.0000 0.47153  0.91241  0.17151  Biso   1.000  O
  O20      1.0000 0.46763  0.83180  0.67263  Biso   1.000  O
  O21      1.0000 0.27521  0.62414  0.59634  Biso   1.000  O
  O22      1.0000 0.27705  0.62364  0.09674  Biso   1.000  O
  O23      1.0000 0.22555  0.87331  0.59894  Biso   1.000  O
  O24      1.0000 0.22560  0.87375  0.09914  Biso   1.000  O
  O25      1.0000 0.53185  0.66395  0.33920  Biso   1.000  O
  O26      1.0000 0.53113  0.58783  0.83870  Biso   1.000  O
  O27      1.0000 0.97017  0.91589  0.32895  Biso   1.000  O
  O28      1.0000 0.96977  0.83368  0.83130  Biso   1.000  O
  O29      1.0000 0.77995  0.63052  0.89754  Biso   1.000  O
  O30      1.0000 0.78126  0.62842  0.40509  Biso   1.000  O
  O31      1.0000 0.72797  0.87659  0.90573  Biso   1.000  O
  O32      1.0000 0.72741  0.87325  0.40537  Biso   1.000  O
  Ga1      1.0000 0.58321  0.27515  0.12166  Biso   1.000  Ga
