data_image0
_cell_length_a       10.1073
_cell_length_b       5.11973
_cell_length_c       10.4883
_cell_angle_alpha    90.0614
_cell_angle_beta     90.7122
_cell_angle_gamma    89.529

_symmetry_space_group_name_H-M    "P 1"
_symmetry_int_tables_number       1

loop_
  _symmetry_equiv_pos_as_xyz
  'x, y, z'

loop_
  _atom_site_label
  _atom_site_occupancy
  _atom_site_fract_x
  _atom_site_fract_y
  _atom_site_fract_z
  _atom_site_thermal_displace_type
  _atom_site_B_iso_or_equiv
  _atom_site_type_symbol
  Ga1      1.0000 0.12509  0.02050  0.18361  Biso   1.000  Ga
  Zr1      1.0000 0.13883  0.04165  0.66938  Biso   1.000  Zr
  Zr2      1.0000 0.13744  0.45564  0.41589  Biso   1.000  Zr
  Zr3      1.0000 0.14393  0.45902  0.92289  Biso   1.000  Zr
  Zr4      1.0000 0.35306  0.54749  0.16991  Biso   1.000  Zr
  Zr5      1.0000 0.36026  0.54459  0.67064  Biso   1.000  Zr
  Zr6      1.0000 0.35640  0.96122  0.41763  Biso   1.000  Zr
  Zr7      1.0000 0.35900  0.96508  0.92428  Biso   1.000  Zr
  Zr8      1.0000 0.64075  0.03927  0.07814  Biso   1.000  Zr
  Zr9      1.0000 0.63688  0.04103  0.57904  Biso   1.000  Zr
  Zr10     1.0000 0.63641  0.45800  0.32735  Biso   1.000  Zr
  Zr11     1.0000 0.64047  0.45982  0.82992  Biso   1.000  Zr
  Zr12     1.0000 0.86911  0.53125  0.08272  Biso   1.000  Zr
  Zr13     1.0000 0.85972  0.53897  0.58035  Biso   1.000  Zr
  Zr14     1.0000 0.85799  0.95647  0.33099  Biso   1.000  Zr
  Zr15     1.0000 0.86371  0.95610  0.83162  Biso   1.000  Zr
  O1       1.0000 0.04634  0.31239  0.08810  Biso   1.000  O
  O2       1.0000 0.03179  0.32802  0.58268  Biso   1.000  O
  O3       1.0000 0.02953  0.16337  0.33638  Biso   1.000  O
  O4       1.0000 0.03380  0.17297  0.83401  Biso   1.000  O
  O5       1.0000 0.47019  0.82596  0.08210  Biso   1.000  O
  O6       1.0000 0.46577  0.83320  0.58291  Biso   1.000  O
  O7       1.0000 0.46457  0.67034  0.33339  Biso   1.000  O
  O8       1.0000 0.46995  0.67635  0.83209  Biso   1.000  O
  O9       1.0000 0.26978  0.24045  0.28477  Biso   1.000  O
  O10      1.0000 0.27483  0.24689  0.78835  Biso   1.000  O
  O11      1.0000 0.29804  0.29814  0.02681  Biso   1.000  O
  O12      1.0000 0.27478  0.25453  0.54007  Biso   1.000  O
  O13      1.0000 0.21785  0.74833  0.29510  Biso   1.000  O
  O14      1.0000 0.22595  0.74856  0.79686  Biso   1.000  O
  O15      1.0000 0.21914  0.79086  0.05059  Biso   1.000  O
  O16      1.0000 0.22273  0.75282  0.54422  Biso   1.000  O
  O17      1.0000 0.53175  0.32924  0.16524  Biso   1.000  O
  O18      1.0000 0.53265  0.33364  0.66535  Biso   1.000  O
  O19      1.0000 0.52994  0.16938  0.41420  Biso   1.000  O
  O20      1.0000 0.53611  0.16698  0.91410  Biso   1.000  O
  O21      1.0000 0.96738  0.82322  0.17004  Biso   1.000  O
  O22      1.0000 0.96827  0.82527  0.66912  Biso   1.000  O
  O23      1.0000 0.96430  0.66578  0.41767  Biso   1.000  O
  O24      1.0000 0.97013  0.66722  0.92214  Biso   1.000  O
  O25      1.0000 0.77889  0.24417  0.95644  Biso   1.000  O
  O26      1.0000 0.77281  0.24741  0.45588  Biso   1.000  O
  O27      1.0000 0.77578  0.24831  0.20543  Biso   1.000  O
  O28      1.0000 0.77596  0.25045  0.70605  Biso   1.000  O
  O29      1.0000 0.72852  0.74348  0.95697  Biso   1.000  O
  O30      1.0000 0.72207  0.74733  0.45633  Biso   1.000  O
  O31      1.0000 0.72600  0.74657  0.20575  Biso   1.000  O
  O32      1.0000 0.72534  0.75226  0.70652  Biso   1.000  O
