data_image0
_cell_length_a       5.14515
_cell_length_b       10.4026
_cell_length_c       10.1547
_cell_angle_alpha    90.5781
_cell_angle_beta     89.9993
_cell_angle_gamma    90.0007

_symmetry_space_group_name_H-M    "P 1"
_symmetry_int_tables_number       1

loop_
  _symmetry_equiv_pos_as_xyz
  'x, y, z'

loop_
  _atom_site_label
  _atom_site_occupancy
  _atom_site_fract_x
  _atom_site_fract_y
  _atom_site_fract_z
  _atom_site_thermal_displace_type
  _atom_site_B_iso_or_equiv
  _atom_site_type_symbol
  Zr1      1.0000 0.28401  0.97406  0.15573  Biso   1.000  Zr
  Zr2      1.0000 0.22108  0.23007  0.38577  Biso   1.000  Zr
  Zr3      1.0000 0.58744  0.25003  0.12537  Biso   1.000  Zr
  Zr4      1.0000 0.74997  0.99722  0.40306  Biso   1.000  Zr
  O1       1.0000 0.88621  0.19080  0.99239  Biso   1.000  O
  O2       1.0000 0.04335  0.06502  0.28946  Biso   1.000  O
  O3       1.0000 0.88621  0.30926  0.25835  Biso   1.000  O
  O4       1.0000 0.04335  0.43506  0.96128  Biso   1.000  O
  O5       1.0000 0.52531  0.11928  0.27340  Biso   1.000  O
  O6       1.0000 0.42840  0.10093  0.00368  Biso   1.000  O
  O7       1.0000 0.52530  0.38078  0.97735  Biso   1.000  O
  O8       1.0000 0.42836  0.39912  0.24708  Biso   1.000  O
  Zr5      1.0000 0.24208  0.00509  0.65236  Biso   1.000  Zr
  Zr6      1.0000 0.22104  0.27002  0.86499  Biso   1.000  Zr
  Zr7      1.0000 0.70957  0.25003  0.62539  Biso   1.000  Zr
  Zr8      1.0000 0.73702  0.01318  0.89970  Biso   1.000  Zr
  O9       1.0000 0.97906  0.14202  0.52272  Biso   1.000  O
  O10      1.0000 0.00474  0.10664  0.77375  Biso   1.000  O
  O11      1.0000 0.97907  0.35807  0.72802  Biso   1.000  O
  O12      1.0000 0.00480  0.39345  0.47698  Biso   1.000  O
  O13      1.0000 0.49362  0.15613  0.75986  Biso   1.000  O
  O14      1.0000 0.47775  0.09918  0.51513  Biso   1.000  O
  O15      1.0000 0.49367  0.34395  0.49090  Biso   1.000  O
  O16      1.0000 0.47776  0.40089  0.73562  Biso   1.000  O
  Zr9      1.0000 0.28396  0.52598  0.09503  Biso   1.000  Zr
  Zr10     1.0000 0.31403  0.74503  0.38735  Biso   1.000  Zr
  Zr11     1.0000 0.78828  0.75003  0.12538  Biso   1.000  Zr
  Zr12     1.0000 0.73698  0.48687  0.35105  Biso   1.000  Zr
  O17      1.0000 0.07773  0.68114  0.00231  Biso   1.000  O
  O18      1.0000 0.97145  0.56925  0.21761  Biso   1.000  O
  O19      1.0000 0.07775  0.81893  0.24845  Biso   1.000  O
  O20      1.0000 0.97147  0.93082  0.03315  Biso   1.000  O
  O21      1.0000 0.50569  0.64208  0.23947  Biso   1.000  O
  O22      1.0000 0.56864  0.62100  0.98619  Biso   1.000  O
  O23      1.0000 0.50572  0.85796  0.01129  Biso   1.000  O
  O24      1.0000 0.56868  0.87905  0.26457  Biso   1.000  O
  Zr13     1.0000 0.24208  0.49499  0.59841  Biso   1.000  Zr
  Zr14     1.0000 0.31400  0.75504  0.86341  Biso   1.000  Zr
  Zr15     1.0000 0.82126  0.75005  0.62538  Biso   1.000  Zr
  Zr16     1.0000 0.74996  0.50286  0.84770  Biso   1.000  Zr
  O25      1.0000 0.02390  0.64345  0.48742  Biso   1.000  O
  O26      1.0000 0.04342  0.60741  0.73849  Biso   1.000  O
  O27      1.0000 0.02386  0.85665  0.76336  Biso   1.000  O
  O28      1.0000 0.04341  0.89268  0.51228  Biso   1.000  O
  O29      1.0000 0.54925  0.65323  0.73854  Biso   1.000  O
  O30      1.0000 0.51488  0.59172  0.48720  Biso   1.000  O
  O31      1.0000 0.54925  0.84684  0.51221  Biso   1.000  O
  O32      1.0000 0.51485  0.90835  0.76356  Biso   1.000  O
  Ga1      1.0000 0.10303  0.24995  0.12539  Biso   1.000  Ga
