data_image0
_cell_length_a       10.074
_cell_length_b       5.26079
_cell_length_c       10.1975
_cell_angle_alpha    89.5073
_cell_angle_beta     92.2451
_cell_angle_gamma    90.8202

_symmetry_space_group_name_H-M    "P 1"
_symmetry_int_tables_number       1

loop_
  _symmetry_equiv_pos_as_xyz
  'x, y, z'

loop_
  _atom_site_label
  _atom_site_occupancy
  _atom_site_fract_x
  _atom_site_fract_y
  _atom_site_fract_z
  _atom_site_thermal_displace_type
  _atom_site_B_iso_or_equiv
  _atom_site_type_symbol
  Zr1      1.0000 0.12424  0.06875  0.11755  Biso   1.000  Zr
  Zr2      1.0000 0.13043  0.46466  0.38792  Biso   1.000  Zr
  Zr3      1.0000 0.36739  0.52191  0.11907  Biso   1.000  Zr
  Zr4      1.0000 0.36954  0.97255  0.37074  Biso   1.000  Zr
  O1       1.0000 0.01111  0.35978  0.21629  Biso   1.000  O
  O2       1.0000 0.04321  0.12608  0.43892  Biso   1.000  O
  O3       1.0000 0.45556  0.86741  0.19379  Biso   1.000  O
  O4       1.0000 0.46265  0.63191  0.44328  Biso   1.000  O
  O5       1.0000 0.26401  0.23604  0.24886  Biso   1.000  O
  O6       1.0000 0.27575  0.26176  0.49727  Biso   1.000  O
  O7       1.0000 0.23491  0.76647  0.48828  Biso   1.000  O
  O8       1.0000 0.20772  0.71572  0.22954  Biso   1.000  O
  Zr5      1.0000 0.13973  0.02003  0.61623  Biso   1.000  Zr
  Zr6      1.0000 0.14790  0.44630  0.85297  Biso   1.000  Zr
  Zr7      1.0000 0.37553  0.52750  0.62296  Biso   1.000  Zr
  Zr8      1.0000 0.37726  0.95967  0.87247  Biso   1.000  Zr
  O9       1.0000 0.05713  0.36675  0.66571  Biso   1.000  O
  O10      1.0000 0.04184  0.11909  0.93081  Biso   1.000  O
  O11      1.0000 0.47083  0.86067  0.69396  Biso   1.000  O
  O12      1.0000 0.47775  0.62801  0.94985  Biso   1.000  O
  O13      1.0000 0.27896  0.22137  0.74346  Biso   1.000  O
  O14      1.0000 0.29180  0.24231  0.98924  Biso   1.000  O
  O15      1.0000 0.24146  0.76602  0.98667  Biso   1.000  O
  O16      1.0000 0.23940  0.72582  0.73891  Biso   1.000  O
  Zr9      1.0000 0.63066  0.04026  0.13316  Biso   1.000  Zr
  Zr10     1.0000 0.63224  0.46386  0.39372  Biso   1.000  Zr
  Zr11     1.0000 0.83640  0.54985  0.15901  Biso   1.000  Zr
  Zr12     1.0000 0.86474  0.96992  0.39551  Biso   1.000  Zr
  O17      1.0000 0.53198  0.35974  0.20148  Biso   1.000  O
  O18      1.0000 0.53309  0.13027  0.45298  Biso   1.000  O
  O19      1.0000 0.94552  0.89122  0.21513  Biso   1.000  O
  O20      1.0000 0.96165  0.62541  0.44894  Biso   1.000  O
  O21      1.0000 0.75870  0.24321  0.27107  Biso   1.000  O
  O22      1.0000 0.77181  0.26496  0.51689  Biso   1.000  O
  O23      1.0000 0.72906  0.75564  0.51295  Biso   1.000  O
  O24      1.0000 0.70966  0.75148  0.26730  Biso   1.000  O
  Zr13     1.0000 0.64107  0.02851  0.63518  Biso   1.000  Zr
  Zr14     1.0000 0.64340  0.46441  0.88323  Biso   1.000  Zr
  Zr15     1.0000 0.87752  0.53889  0.64405  Biso   1.000  Zr
  Zr16     1.0000 0.86997  0.95032  0.87587  Biso   1.000  Zr
  O25      1.0000 0.54112  0.36160  0.69926  Biso   1.000  O
  O26      1.0000 0.54767  0.12570  0.94673  Biso   1.000  O
  O27      1.0000 0.95581  0.90482  0.66617  Biso   1.000  O
  O28      1.0000 0.95966  0.60497  0.85252  Biso   1.000  O
  O29      1.0000 0.77537  0.23126  0.76483  Biso   1.000  O
  O30      1.0000 0.77319  0.27857  0.02021  Biso   1.000  O
  O31      1.0000 0.74311  0.76818  0.01122  Biso   1.000  O
  O32      1.0000 0.72722  0.73772  0.75777  Biso   1.000  O
  Ge1      1.0000 0.08721  0.58085  0.08783  Biso   1.000  Ge
