data_image0
_cell_length_a       10.2453
_cell_length_b       10.3153
_cell_length_c       10.5187
_cell_angle_alpha    89.8802
_cell_angle_beta     79.9723
_cell_angle_gamma    90.0549

_symmetry_space_group_name_H-M    "P 1"
_symmetry_int_tables_number       1

loop_
  _symmetry_equiv_pos_as_xyz
  'x, y, z'

loop_
  _atom_site_label
  _atom_site_occupancy
  _atom_site_fract_x
  _atom_site_fract_y
  _atom_site_fract_z
  _atom_site_thermal_displace_type
  _atom_site_B_iso_or_equiv
  _atom_site_type_symbol
  H1       1.0000 0.01247  0.01019  0.12090  Biso   1.000  H
  Zr1      1.0000 0.14364  0.22766  0.39295  Biso   1.000  Zr
  Zr2      1.0000 0.35677  0.26453  0.10720  Biso   1.000  Zr
  Zr3      1.0000 0.36104  0.47820  0.35363  Biso   1.000  Zr
  O1       1.0000 0.02927  0.15992  0.07382  Biso   1.000  O
  O2       1.0000 0.02829  0.09048  0.34102  Biso   1.000  O
  O3       1.0000 0.46764  0.41283  0.17302  Biso   1.000  O
  O4       1.0000 0.46674  0.33412  0.42344  Biso   1.000  O
  O5       1.0000 0.28966  0.13660  0.25336  Biso   1.000  O
  O6       1.0000 0.27524  0.12100  0.49515  Biso   1.000  O
  O7       1.0000 0.22412  0.37748  0.01080  Biso   1.000  O
  O8       1.0000 0.22273  0.37352  0.25900  Biso   1.000  O
  Zr4      1.0000 0.14090  0.01985  0.64492  Biso   1.000  Zr
  Zr5      1.0000 0.14043  0.22299  0.90195  Biso   1.000  Zr
  Zr6      1.0000 0.36005  0.27043  0.60629  Biso   1.000  Zr
  Zr7      1.0000 0.36024  0.47697  0.85610  Biso   1.000  Zr
  O9       1.0000 0.03295  0.16530  0.57771  Biso   1.000  O
  O10      1.0000 0.03222  0.08493  0.82525  Biso   1.000  O
  O11      1.0000 0.46749  0.41526  0.67281  Biso   1.000  O
  O12      1.0000 0.46943  0.33648  0.92324  Biso   1.000  O
  O13      1.0000 0.27489  0.12638  0.74111  Biso   1.000  O
  O14      1.0000 0.29095  0.13183  0.98068  Biso   1.000  O
  O15      1.0000 0.22567  0.37864  0.51033  Biso   1.000  O
  O16      1.0000 0.22580  0.37027  0.76080  Biso   1.000  O
  Zr8      1.0000 0.14128  0.52089  0.14480  Biso   1.000  Zr
  Zr9      1.0000 0.14247  0.72874  0.39303  Biso   1.000  Zr
  Zr10     1.0000 0.35780  0.77590  0.10501  Biso   1.000  Zr
  Zr11     1.0000 0.35665  0.97883  0.35062  Biso   1.000  Zr
  O17      1.0000 0.03542  0.66938  0.08005  Biso   1.000  O
  O18      1.0000 0.03327  0.58490  0.32737  Biso   1.000  O
  O19      1.0000 0.47238  0.91430  0.17217  Biso   1.000  O
  O20      1.0000 0.46937  0.83580  0.42351  Biso   1.000  O
  O21      1.0000 0.27660  0.62352  0.23899  Biso   1.000  O
  O22      1.0000 0.27695  0.62154  0.49033  Biso   1.000  O
  O23      1.0000 0.23537  0.86999  0.99758  Biso   1.000  O
  O24      1.0000 0.23636  0.86091  0.26407  Biso   1.000  O
  Zr12     1.0000 0.14124  0.52147  0.64665  Biso   1.000  Zr
  Zr13     1.0000 0.14350  0.73222  0.89618  Biso   1.000  Zr
  Zr14     1.0000 0.36222  0.77237  0.60351  Biso   1.000  Zr
  Zr15     1.0000 0.35931  0.97918  0.85781  Biso   1.000  Zr
  O25      1.0000 0.03464  0.66575  0.57926  Biso   1.000  O
  O26      1.0000 0.03565  0.58275  0.82955  Biso   1.000  O
  O27      1.0000 0.46796  0.91443  0.67447  Biso   1.000  O
  O28      1.0000 0.47547  0.84001  0.92445  Biso   1.000  O
  O29      1.0000 0.27723  0.62900  0.74078  Biso   1.000  O
  O30      1.0000 0.27652  0.61892  0.99084  Biso   1.000  O
  O31      1.0000 0.22492  0.87783  0.50962  Biso   1.000  O
  O32      1.0000 0.22470  0.87233  0.75577  Biso   1.000  O
  Zr16     1.0000 0.64163  0.02111  0.14647  Biso   1.000  Zr
  Zr17     1.0000 0.63820  0.22869  0.39589  Biso   1.000  Zr
  Zr18     1.0000 0.86396  0.27024  0.10435  Biso   1.000  Zr
  Zr19     1.0000 0.86100  0.47906  0.35438  Biso   1.000  Zr
  O33      1.0000 0.53669  0.16640  0.07963  Biso   1.000  O
  O34      1.0000 0.53534  0.08252  0.32948  Biso   1.000  O
  O35      1.0000 0.96714  0.41581  0.17199  Biso   1.000  O
  O36      1.0000 0.96794  0.33744  0.42269  Biso   1.000  O
  O37      1.0000 0.77482  0.13016  0.24214  Biso   1.000  O
  O38      1.0000 0.77450  0.12253  0.49134  Biso   1.000  O
  O39      1.0000 0.72652  0.37906  0.00956  Biso   1.000  O
  O40      1.0000 0.72487  0.37230  0.26091  Biso   1.000  O
  Zr20     1.0000 0.63953  0.02070  0.64654  Biso   1.000  Zr
  Zr21     1.0000 0.63997  0.22894  0.89670  Biso   1.000  Zr
  Zr22     1.0000 0.86097  0.27208  0.60391  Biso   1.000  Zr
  Zr23     1.0000 0.86294  0.47885  0.85520  Biso   1.000  Zr
  O41      1.0000 0.53346  0.16564  0.58005  Biso   1.000  O
  O42      1.0000 0.53669  0.08356  0.82944  Biso   1.000  O
  O43      1.0000 0.96839  0.41512  0.67201  Biso   1.000  O
  O44      1.0000 0.96903  0.33561  0.92231  Biso   1.000  O
  O45      1.0000 0.77658  0.12862  0.74019  Biso   1.000  O
  O46      1.0000 0.77677  0.12125  0.99002  Biso   1.000  O
  O47      1.0000 0.72479  0.37874  0.51033  Biso   1.000  O
  O48      1.0000 0.72638  0.37182  0.75964  Biso   1.000  O
  Zr24     1.0000 0.63871  0.52058  0.14590  Biso   1.000  Zr
  Zr25     1.0000 0.63998  0.72985  0.39562  Biso   1.000  Zr
  Zr26     1.0000 0.86300  0.77156  0.10335  Biso   1.000  Zr
  Zr27     1.0000 0.86398  0.98225  0.35479  Biso   1.000  Zr
  O49      1.0000 0.53316  0.66437  0.07814  Biso   1.000  O
  O50      1.0000 0.53391  0.58429  0.32864  Biso   1.000  O
  O51      1.0000 0.95766  0.93318  0.16164  Biso   1.000  O
  O52      1.0000 0.96722  0.83238  0.41751  Biso   1.000  O
  O53      1.0000 0.77568  0.62877  0.23997  Biso   1.000  O
  O54      1.0000 0.77577  0.62167  0.49061  Biso   1.000  O
  O55      1.0000 0.72671  0.87804  0.00944  Biso   1.000  O
  O56      1.0000 0.72859  0.87066  0.26002  Biso   1.000  O
  Zr28     1.0000 0.63952  0.52113  0.64637  Biso   1.000  Zr
  Zr29     1.0000 0.64010  0.72854  0.89695  Biso   1.000  Zr
  Zr30     1.0000 0.86219  0.77051  0.60339  Biso   1.000  Zr
  Zr31     1.0000 0.86065  0.97861  0.85380  Biso   1.000  Zr
  O57      1.0000 0.53458  0.66569  0.57894  Biso   1.000  O
  O58      1.0000 0.53352  0.58477  0.82878  Biso   1.000  O
  O59      1.0000 0.96644  0.91648  0.66922  Biso   1.000  O
  O60      1.0000 0.96748  0.83331  0.91902  Biso   1.000  O
  O61      1.0000 0.77646  0.62798  0.74048  Biso   1.000  O
  O62      1.0000 0.77765  0.62260  0.99130  Biso   1.000  O
  O63      1.0000 0.72639  0.87880  0.50997  Biso   1.000  O
  O64      1.0000 0.72663  0.87088  0.75911  Biso   1.000  O
