data_image0
_cell_length_a       10.1298
_cell_length_b       10.2838
_cell_length_c       10.5163
_cell_angle_alpha    89.8381
_cell_angle_beta     89.9815
_cell_angle_gamma    90.0407

_symmetry_space_group_name_H-M    "P 1"
_symmetry_int_tables_number       1

loop_
  _symmetry_equiv_pos_as_xyz
  'x, y, z'

loop_
  _atom_site_label
  _atom_site_occupancy
  _atom_site_fract_x
  _atom_site_fract_y
  _atom_site_fract_z
  _atom_site_thermal_displace_type
  _atom_site_B_iso_or_equiv
  _atom_site_type_symbol
  H1       1.0000 0.01382  0.01008  0.12353  Biso   1.000  H
  Zr1      1.0000 0.14359  0.22892  0.42049  Biso   1.000  Zr
  Zr2      1.0000 0.35591  0.26391  0.17274  Biso   1.000  Zr
  Zr3      1.0000 0.36161  0.47865  0.42188  Biso   1.000  Zr
  Zr4      1.0000 0.64217  0.02114  0.07914  Biso   1.000  Zr
  Zr5      1.0000 0.63884  0.22958  0.32811  Biso   1.000  Zr
  Zr6      1.0000 0.86478  0.26985  0.07846  Biso   1.000  Zr
  Zr7      1.0000 0.86140  0.47981  0.32846  Biso   1.000  Zr
  O1       1.0000 0.02835  0.15759  0.07805  Biso   1.000  O
  O2       1.0000 0.02583  0.09186  0.35038  Biso   1.000  O
  O3       1.0000 0.46880  0.41038  0.08374  Biso   1.000  O
  O4       1.0000 0.46990  0.33828  0.33310  Biso   1.000  O
  O5       1.0000 0.28527  0.13206  0.30841  Biso   1.000  O
  O6       1.0000 0.29253  0.13627  0.03552  Biso   1.000  O
  O7       1.0000 0.22442  0.37543  0.29664  Biso   1.000  O
  O8       1.0000 0.22217  0.37586  0.04817  Biso   1.000  O
  O9       1.0000 0.53332  0.16290  0.16829  Biso   1.000  O
  O10      1.0000 0.53238  0.08718  0.41798  Biso   1.000  O
  O11      1.0000 0.96986  0.41287  0.16858  Biso   1.000  O
  O12      1.0000 0.96968  0.33992  0.41912  Biso   1.000  O
  O13      1.0000 0.77475  0.12548  0.45494  Biso   1.000  O
  O14      1.0000 0.77530  0.12690  0.20585  Biso   1.000  O
  O15      1.0000 0.72510  0.37513  0.45484  Biso   1.000  O
  O16      1.0000 0.72585  0.37669  0.20525  Biso   1.000  O
  Zr8      1.0000 0.14099  0.01964  0.67187  Biso   1.000  Zr
  Zr9      1.0000 0.14132  0.22285  0.92882  Biso   1.000  Zr
  Zr10     1.0000 0.36065  0.27031  0.67411  Biso   1.000  Zr
  Zr11     1.0000 0.36023  0.47677  0.92458  Biso   1.000  Zr
  Zr12     1.0000 0.63788  0.02031  0.57765  Biso   1.000  Zr
  Zr13     1.0000 0.64012  0.22896  0.82902  Biso   1.000  Zr
  Zr14     1.0000 0.86059  0.27178  0.57781  Biso   1.000  Zr
  Zr15     1.0000 0.86253  0.47916  0.82954  Biso   1.000  Zr
  O17      1.0000 0.03125  0.16390  0.58374  Biso   1.000  O
  O18      1.0000 0.02974  0.08818  0.82935  Biso   1.000  O
  O19      1.0000 0.46969  0.41277  0.58334  Biso   1.000  O
  O20      1.0000 0.47058  0.33663  0.83312  Biso   1.000  O
  O21      1.0000 0.27421  0.12212  0.79526  Biso   1.000  O
  O22      1.0000 0.27533  0.12537  0.54936  Biso   1.000  O
  O23      1.0000 0.22665  0.37358  0.79770  Biso   1.000  O
  O24      1.0000 0.22624  0.37606  0.54744  Biso   1.000  O
  O25      1.0000 0.53168  0.16281  0.66869  Biso   1.000  O
  O26      1.0000 0.53571  0.08569  0.91820  Biso   1.000  O
  O27      1.0000 0.97023  0.41234  0.66866  Biso   1.000  O
  O28      1.0000 0.97161  0.33876  0.91920  Biso   1.000  O
  O29      1.0000 0.77771  0.12403  0.95401  Biso   1.000  O
  O30      1.0000 0.77499  0.12561  0.70401  Biso   1.000  O
  O31      1.0000 0.72627  0.37424  0.95449  Biso   1.000  O
  O32      1.0000 0.72651  0.37589  0.70429  Biso   1.000  O
  Zr16     1.0000 0.14157  0.52067  0.17260  Biso   1.000  Zr
  Zr17     1.0000 0.14228  0.73023  0.42000  Biso   1.000  Zr
  Zr18     1.0000 0.35796  0.77589  0.17284  Biso   1.000  Zr
  Zr19     1.0000 0.35690  0.97890  0.41878  Biso   1.000  Zr
  Zr20     1.0000 0.63830  0.52026  0.07969  Biso   1.000  Zr
  Zr21     1.0000 0.64058  0.73054  0.32703  Biso   1.000  Zr
  Zr22     1.0000 0.86352  0.77150  0.07709  Biso   1.000  Zr
  Zr23     1.0000 0.86390  0.98228  0.32943  Biso   1.000  Zr
  O33      1.0000 0.03324  0.66648  0.08501  Biso   1.000  O
  O34      1.0000 0.03220  0.58687  0.33300  Biso   1.000  O
  O35      1.0000 0.47590  0.91175  0.08246  Biso   1.000  O
  O36      1.0000 0.47658  0.84411  0.32857  Biso   1.000  O
  O37      1.0000 0.27729  0.62102  0.29582  Biso   1.000  O
  O38      1.0000 0.27580  0.62084  0.04789  Biso   1.000  O
  O39      1.0000 0.23373  0.86500  0.30359  Biso   1.000  O
  O40      1.0000 0.23965  0.86471  0.03687  Biso   1.000  O
  O41      1.0000 0.53118  0.66223  0.16915  Biso   1.000  O
  O42      1.0000 0.53154  0.58857  0.41864  Biso   1.000  O
  O43      1.0000 0.96132  0.93149  0.15592  Biso   1.000  O
  O44      1.0000 0.96789  0.83302  0.41268  Biso   1.000  O
  O45      1.0000 0.77542  0.62436  0.45466  Biso   1.000  O
  O46      1.0000 0.77650  0.62610  0.20391  Biso   1.000  O
  O47      1.0000 0.72678  0.87540  0.45471  Biso   1.000  O
  O48      1.0000 0.72932  0.87413  0.20441  Biso   1.000  O
  Zr24     1.0000 0.14102  0.52104  0.67373  Biso   1.000  Zr
  Zr25     1.0000 0.14432  0.73115  0.92395  Biso   1.000  Zr
  Zr26     1.0000 0.36161  0.77155  0.67205  Biso   1.000  Zr
  Zr27     1.0000 0.36017  0.97872  0.92612  Biso   1.000  Zr
  Zr28     1.0000 0.63927  0.52110  0.57900  Biso   1.000  Zr
  Zr29     1.0000 0.63899  0.72904  0.82887  Biso   1.000  Zr
  Zr30     1.0000 0.86198  0.77023  0.57755  Biso   1.000  Zr
  Zr31     1.0000 0.86050  0.97878  0.82707  Biso   1.000  Zr
  O49      1.0000 0.03247  0.66373  0.58476  Biso   1.000  O
  O50      1.0000 0.03293  0.58539  0.83421  Biso   1.000  O
  O51      1.0000 0.46886  0.91172  0.58047  Biso   1.000  O
  O52      1.0000 0.47084  0.83798  0.83079  Biso   1.000  O
  O53      1.0000 0.27691  0.62410  0.79726  Biso   1.000  O
  O54      1.0000 0.27655  0.62595  0.54661  Biso   1.000  O
  O55      1.0000 0.22542  0.87389  0.79353  Biso   1.000  O
  O56      1.0000 0.22397  0.87589  0.54741  Biso   1.000  O
  O57      1.0000 0.53218  0.66260  0.66858  Biso   1.000  O
  O58      1.0000 0.53169  0.58595  0.91892  Biso   1.000  O
  O59      1.0000 0.96800  0.91424  0.66519  Biso   1.000  O
  O60      1.0000 0.97049  0.83634  0.91543  Biso   1.000  O
  O61      1.0000 0.77606  0.62510  0.95541  Biso   1.000  O
  O62      1.0000 0.77592  0.62563  0.70480  Biso   1.000  O
  O63      1.0000 0.72668  0.87408  0.95360  Biso   1.000  O
  O64      1.0000 0.72545  0.87492  0.70399  Biso   1.000  O
