data_image0
_cell_length_a       10.0994
_cell_length_b       10.3132
_cell_length_c       5.25421
_cell_angle_alpha    90.0983
_cell_angle_beta     90.1254
_cell_angle_gamma    89.5279

_symmetry_space_group_name_H-M    "P 1"
_symmetry_int_tables_number       1

loop_
  _symmetry_equiv_pos_as_xyz
  'x, y, z'

loop_
  _atom_site_label
  _atom_site_occupancy
  _atom_site_fract_x
  _atom_site_fract_y
  _atom_site_fract_z
  _atom_site_thermal_displace_type
  _atom_site_B_iso_or_equiv
  _atom_site_type_symbol
  H1       1.0000 0.07294  0.91108  0.38126  Biso   1.000  H
  Zr1      1.0000 0.15909  0.23985  0.83777  Biso   1.000  Zr
  Zr2      1.0000 0.35988  0.26920  0.34016  Biso   1.000  Zr
  Zr3      1.0000 0.36449  0.48473  0.84120  Biso   1.000  Zr
  Zr4      1.0000 0.63447  0.02300  0.15221  Biso   1.000  Zr
  Zr5      1.0000 0.63828  0.23111  0.65594  Biso   1.000  Zr
  Zr6      1.0000 0.85566  0.27512  0.14973  Biso   1.000  Zr
  Zr7      1.0000 0.86554  0.47965  0.65533  Biso   1.000  Zr
  O1       1.0000 0.01888  0.13232  0.08992  Biso   1.000  O
  O2       1.0000 0.02714  0.08084  0.84692  Biso   1.000  O
  O3       1.0000 0.46870  0.41863  0.16629  Biso   1.000  O
  O4       1.0000 0.47079  0.33889  0.66647  Biso   1.000  O
  O5       1.0000 0.27393  0.13424  0.58933  Biso   1.000  O
  O6       1.0000 0.29346  0.14313  0.06454  Biso   1.000  O
  O7       1.0000 0.22911  0.38225  0.58876  Biso   1.000  O
  O8       1.0000 0.22425  0.38087  0.09062  Biso   1.000  O
  O9       1.0000 0.53863  0.17108  0.32720  Biso   1.000  O
  O10      1.0000 0.53397  0.08601  0.82214  Biso   1.000  O
  O11      1.0000 0.97538  0.40318  0.33707  Biso   1.000  O
  O12      1.0000 0.97102  0.33382  0.83493  Biso   1.000  O
  O13      1.0000 0.77308  0.12641  0.91023  Biso   1.000  O
  O14      1.0000 0.78475  0.12879  0.41327  Biso   1.000  O
  O15      1.0000 0.72695  0.37689  0.90898  Biso   1.000  O
  O16      1.0000 0.72646  0.37965  0.40703  Biso   1.000  O
  Zr8      1.0000 0.14122  0.52606  0.34142  Biso   1.000  Zr
  Zr9      1.0000 0.14574  0.73558  0.83648  Biso   1.000  Zr
  Zr10     1.0000 0.35533  0.78231  0.33537  Biso   1.000  Zr
  Zr11     1.0000 0.35083  0.98353  0.83190  Biso   1.000  Zr
  Zr12     1.0000 0.63733  0.52571  0.15908  Biso   1.000  Zr
  Zr13     1.0000 0.63565  0.73237  0.65059  Biso   1.000  Zr
  Zr14     1.0000 0.86262  0.76998  0.15521  Biso   1.000  Zr
  Zr15     1.0000 0.85454  0.97860  0.66710  Biso   1.000  Zr
  O17      1.0000 0.03222  0.66691  0.16600  Biso   1.000  O
  O18      1.0000 0.03217  0.58751  0.66109  Biso   1.000  O
  O19      1.0000 0.47000  0.91856  0.15615  Biso   1.000  O
  O20      1.0000 0.47033  0.84505  0.65320  Biso   1.000  O
  O21      1.0000 0.27828  0.62688  0.58540  Biso   1.000  O
  O22      1.0000 0.27553  0.62581  0.08904  Biso   1.000  O
  O23      1.0000 0.22101  0.87192  0.58150  Biso   1.000  O
  O24      1.0000 0.23421  0.87040  0.06611  Biso   1.000  O
  O25      1.0000 0.53252  0.67008  0.32904  Biso   1.000  O
  O26      1.0000 0.53390  0.58953  0.83029  Biso   1.000  O
  O27      1.0000 0.97433  0.91450  0.36012  Biso   1.000  O
  O28      1.0000 0.96707  0.83833  0.83892  Biso   1.000  O
  O29      1.0000 0.77653  0.62664  0.91034  Biso   1.000  O
  O30      1.0000 0.77677  0.62722  0.40960  Biso   1.000  O
  O31      1.0000 0.72481  0.87652  0.90411  Biso   1.000  O
  O32      1.0000 0.73022  0.87929  0.40461  Biso   1.000  O
