data_image0
_cell_length_a       10.171
_cell_length_b       5.17707
_cell_length_c       10.4845
_cell_angle_alpha    89.9874
_cell_angle_beta     80.4508
_cell_angle_gamma    89.9861

_symmetry_space_group_name_H-M    "P 1"
_symmetry_int_tables_number       1

loop_
  _symmetry_equiv_pos_as_xyz
  'x, y, z'

loop_
  _atom_site_label
  _atom_site_occupancy
  _atom_site_fract_x
  _atom_site_fract_y
  _atom_site_fract_z
  _atom_site_thermal_displace_type
  _atom_site_B_iso_or_equiv
  _atom_site_type_symbol
  Hf1      1.0000 0.13916  0.04267  0.14582  Biso   1.000  Hf
  Zr1      1.0000 0.13885  0.04263  0.64531  Biso   1.000  Zr
  Zr2      1.0000 0.63898  0.04282  0.14527  Biso   1.000  Zr
  Zr3      1.0000 0.63880  0.04256  0.64538  Biso   1.000  Zr
  Zr4      1.0000 0.13875  0.45765  0.39511  Biso   1.000  Zr
  Zr5      1.0000 0.13888  0.45698  0.89565  Biso   1.000  Zr
  Zr6      1.0000 0.63902  0.45763  0.39527  Biso   1.000  Zr
  Zr7      1.0000 0.63877  0.45736  0.89551  Biso   1.000  Zr
  Zr8      1.0000 0.36085  0.54307  0.10469  Biso   1.000  Zr
  Zr9      1.0000 0.36115  0.54277  0.60469  Biso   1.000  Zr
  Zr10     1.0000 0.86195  0.54280  0.10477  Biso   1.000  Zr
  Zr11     1.0000 0.86104  0.54253  0.60470  Biso   1.000  Zr
  Zr12     1.0000 0.36117  0.95774  0.35460  Biso   1.000  Zr
  Zr13     1.0000 0.36087  0.95760  0.85485  Biso   1.000  Zr
  Zr14     1.0000 0.86142  0.95762  0.35441  Biso   1.000  Zr
  Zr15     1.0000 0.86114  0.95732  0.85477  Biso   1.000  Zr
  O1       1.0000 0.03619  0.33797  0.08118  Biso   1.000  O
  O2       1.0000 0.03598  0.34007  0.58064  Biso   1.000  O
  O3       1.0000 0.53593  0.34081  0.08120  Biso   1.000  O
  O4       1.0000 0.53622  0.34096  0.58111  Biso   1.000  O
  O5       1.0000 0.03675  0.15870  0.33022  Biso   1.000  O
  O6       1.0000 0.03595  0.15988  0.83077  Biso   1.000  O
  O7       1.0000 0.53610  0.15961  0.33110  Biso   1.000  O
  O8       1.0000 0.53600  0.15911  0.83130  Biso   1.000  O
  O9       1.0000 0.46391  0.84061  0.16893  Biso   1.000  O
  O10      1.0000 0.46378  0.84094  0.66886  Biso   1.000  O
  O11      1.0000 0.96514  0.84029  0.16863  Biso   1.000  O
  O12      1.0000 0.96397  0.84019  0.66898  Biso   1.000  O
  O13      1.0000 0.46392  0.65952  0.41877  Biso   1.000  O
  O14      1.0000 0.46322  0.65859  0.91883  Biso   1.000  O
  O15      1.0000 0.96382  0.65913  0.41883  Biso   1.000  O
  O16      1.0000 0.96407  0.65919  0.91908  Biso   1.000  O
  O17      1.0000 0.27564  0.25784  0.24022  Biso   1.000  O
  O18      1.0000 0.27611  0.25804  0.74081  Biso   1.000  O
  O19      1.0000 0.77618  0.25817  0.24068  Biso   1.000  O
  O20      1.0000 0.77600  0.25800  0.74076  Biso   1.000  O
  O21      1.0000 0.27616  0.24225  0.49055  Biso   1.000  O
  O22      1.0000 0.27554  0.24122  0.99141  Biso   1.000  O
  O23      1.0000 0.77625  0.24190  0.49061  Biso   1.000  O
  O24      1.0000 0.77606  0.24195  0.99071  Biso   1.000  O
  O25      1.0000 0.22307  0.75967  0.01004  Biso   1.000  O
  O26      1.0000 0.22390  0.75809  0.50918  Biso   1.000  O
  O27      1.0000 0.72398  0.75789  0.00940  Biso   1.000  O
  O28      1.0000 0.72392  0.75812  0.50931  Biso   1.000  O
  O29      1.0000 0.22325  0.74346  0.25899  Biso   1.000  O
  O30      1.0000 0.22387  0.74185  0.75945  Biso   1.000  O
  O31      1.0000 0.72451  0.74226  0.25922  Biso   1.000  O
  O32      1.0000 0.72381  0.74198  0.75943  Biso   1.000  O
