data_image0
_cell_length_a       10.3504
_cell_length_b       5.19837
_cell_length_c       10.6363
_cell_angle_alpha    89.4352
_cell_angle_beta     79.1948
_cell_angle_gamma    89.4624

_symmetry_space_group_name_H-M    "P 1"
_symmetry_int_tables_number       1

loop_
  _symmetry_equiv_pos_as_xyz
  'x, y, z'

loop_
  _atom_site_label
  _atom_site_occupancy
  _atom_site_fract_x
  _atom_site_fract_y
  _atom_site_fract_z
  _atom_site_thermal_displace_type
  _atom_site_B_iso_or_equiv
  _atom_site_type_symbol
  Zr1      1.0000 0.13655  0.03571  0.14471  Biso   1.000  Zr
  Zr2      1.0000 0.11623  0.44422  0.39812  Biso   1.000  Zr
  Zr3      1.0000 0.35511  0.53919  0.08910  Biso   1.000  Zr
  Zr4      1.0000 0.36060  0.97777  0.35392  Biso   1.000  Zr
  O1       1.0000 0.02910  0.31085  0.06839  Biso   1.000  O
  O2       1.0000 0.02204  0.17468  0.31597  Biso   1.000  O
  O3       1.0000 0.47812  0.78294  0.19271  Biso   1.000  O
  O4       1.0000 0.48958  0.72865  0.44218  Biso   1.000  O
  O5       1.0000 0.26943  0.24509  0.23628  Biso   1.000  O
  O6       1.0000 0.26786  0.24858  0.49058  Biso   1.000  O
  O7       1.0000 0.22021  0.75953  0.00261  Biso   1.000  O
  O8       1.0000 0.23412  0.72713  0.25677  Biso   1.000  O
  Zr5      1.0000 0.13921  0.03906  0.64373  Biso   1.000  Zr
  Zr6      1.0000 0.13515  0.45301  0.89148  Biso   1.000  Zr
  Zr7      1.0000 0.36715  0.55020  0.61027  Biso   1.000  Zr
  Zr8      1.0000 0.36024  0.96188  0.85238  Biso   1.000  Zr
  O9       1.0000 0.02297  0.31506  0.57660  Biso   1.000  O
  O10      1.0000 0.03025  0.17643  0.81953  Biso   1.000  O
  O11      1.0000 0.47300  0.82232  0.68560  Biso   1.000  O
  O12      1.0000 0.47388  0.69735  0.93020  Biso   1.000  O
  O13      1.0000 0.27213  0.25375  0.73982  Biso   1.000  O
  O14      1.0000 0.27102  0.24591  0.98651  Biso   1.000  O
  O15      1.0000 0.23971  0.73491  0.49792  Biso   1.000  O
  O16      1.0000 0.22419  0.74859  0.75705  Biso   1.000  O
  Zr9      1.0000 0.63782  0.03782  0.14655  Biso   1.000  Zr
  Zr10     1.0000 0.64909  0.47035  0.40221  Biso   1.000  Zr
  Zr11     1.0000 0.86269  0.54062  0.10548  Biso   1.000  Zr
  Zr12     1.0000 0.85718  0.95933  0.35509  Biso   1.000  Zr
  O17      1.0000 0.52505  0.30276  0.07200  Biso   1.000  O
  O18      1.0000 0.53098  0.20194  0.32441  Biso   1.000  O
  O19      1.0000 0.97130  0.80731  0.17791  Biso   1.000  O
  O20      1.0000 0.96323  0.69133  0.43220  Biso   1.000  O
  O21      1.0000 0.77268  0.25515  0.23859  Biso   1.000  O
  O22      1.0000 0.77832  0.24592  0.49374  Biso   1.000  O
  O23      1.0000 0.72587  0.75380  0.01400  Biso   1.000  O
  O24      1.0000 0.72922  0.74868  0.26209  Biso   1.000  O
  Zr13     1.0000 0.63770  0.04894  0.64891  Biso   1.000  Zr
  Zr14     1.0000 0.63727  0.45485  0.89881  Biso   1.000  Zr
  Zr15     1.0000 0.85899  0.54901  0.61120  Biso   1.000  Zr
  Zr16     1.0000 0.86162  0.95666  0.85570  Biso   1.000  Zr
  O25      1.0000 0.53179  0.31929  0.57179  Biso   1.000  O
  O26      1.0000 0.52645  0.19521  0.82255  Biso   1.000  O
  O27      1.0000 0.97118  0.81889  0.67769  Biso   1.000  O
  O28      1.0000 0.96684  0.67449  0.92582  Biso   1.000  O
  O29      1.0000 0.77113  0.25765  0.74355  Biso   1.000  O
  O30      1.0000 0.77218  0.24117  0.99100  Biso   1.000  O
  O31      1.0000 0.72535  0.75843  0.51644  Biso   1.000  O
  O32      1.0000 0.72710  0.74758  0.76528  Biso   1.000  O
  Hf1      1.0000 0.38245  0.49018  0.33955  Biso   1.000  Hf
