data_image0
_cell_length_a       5.13582
_cell_length_b       10.1387
_cell_length_c       10.1387
_cell_angle_alpha    89.9997
_cell_angle_beta     90
_cell_angle_gamma    90.0003

_symmetry_space_group_name_H-M    "P 1"
_symmetry_int_tables_number       1

loop_
  _symmetry_equiv_pos_as_xyz
  'x, y, z'

loop_
  _atom_site_label
  _atom_site_occupancy
  _atom_site_fract_x
  _atom_site_fract_y
  _atom_site_fract_z
  _atom_site_thermal_displace_type
  _atom_site_B_iso_or_equiv
  _atom_site_type_symbol
  Zr1      1.0000 0.25036  0.98167  0.10669  Biso   1.000  Zr
  Zr2      1.0000 0.25037  0.24998  0.37500  Biso   1.000  Zr
  Zr3      1.0000 0.75038  0.24998  0.10669  Biso   1.000  Zr
  Zr4      1.0000 0.74890  0.49640  0.35311  Biso   1.000  Zr
  O1       1.0000 0.98872  0.12709  0.22958  Biso   1.000  O
  O2       1.0000 0.02796  0.11518  0.48136  Biso   1.000  O
  O3       1.0000 0.02060  0.37828  0.23499  Biso   1.000  O
  O4       1.0000 0.96748  0.36944  0.48438  Biso   1.000  O
  O5       1.0000 0.48015  0.12168  0.23500  Biso   1.000  O
  O6       1.0000 0.53325  0.13053  0.48439  Biso   1.000  O
  O7       1.0000 0.47276  0.38478  0.48136  Biso   1.000  O
  O8       1.0000 0.51203  0.37287  0.22957  Biso   1.000  O
  Zr5      1.0000 0.25037  0.99577  0.60669  Biso   1.000  Zr
  Zr6      1.0000 0.25035  0.24998  0.83837  Biso   1.000  Zr
  Zr7      1.0000 0.75036  0.24999  0.60669  Biso   1.000  Zr
  Zr8      1.0000 0.75184  0.49640  0.86028  Biso   1.000  Zr
  O9       1.0000 0.96745  0.13053  0.72900  Biso   1.000  O
  O10      1.0000 0.02061  0.12168  0.97838  Biso   1.000  O
  O11      1.0000 0.02795  0.38477  0.73201  Biso   1.000  O
  O12      1.0000 0.98873  0.37287  0.98380  Biso   1.000  O
  O13      1.0000 0.47274  0.11518  0.73202  Biso   1.000  O
  O14      1.0000 0.51203  0.12709  0.98381  Biso   1.000  O
  O15      1.0000 0.48015  0.37828  0.97838  Biso   1.000  O
  O16      1.0000 0.53323  0.36945  0.72898  Biso   1.000  O
  Zr9      1.0000 0.25037  0.51830  0.10669  Biso   1.000  Zr
  Zr10     1.0000 0.25036  0.74999  0.36089  Biso   1.000  Zr
  Zr11     1.0000 0.75036  0.74999  0.10669  Biso   1.000  Zr
  Zr12     1.0000 0.75183  0.00357  0.35311  Biso   1.000  Zr
  O17      1.0000 0.96748  0.62768  0.22614  Biso   1.000  O
  O18      1.0000 0.03803  0.61678  0.47349  Biso   1.000  O
  O19      1.0000 0.02795  0.87530  0.24148  Biso   1.000  O
  O20      1.0000 0.96407  0.86974  0.48692  Biso   1.000  O
  O21      1.0000 0.47277  0.62466  0.24149  Biso   1.000  O
  O22      1.0000 0.53666  0.63022  0.48693  Biso   1.000  O
  O23      1.0000 0.46269  0.88318  0.47349  Biso   1.000  O
  O24      1.0000 0.53324  0.87228  0.22615  Biso   1.000  O
  Zr13     1.0000 0.25037  0.50418  0.60669  Biso   1.000  Zr
  Zr14     1.0000 0.25038  0.74998  0.85248  Biso   1.000  Zr
  Zr15     1.0000 0.75038  0.74998  0.60669  Biso   1.000  Zr
  Zr16     1.0000 0.74887  0.00357  0.86027  Biso   1.000  Zr
  O25      1.0000 0.96407  0.63021  0.72645  Biso   1.000  O
  O26      1.0000 0.02797  0.62465  0.97189  Biso   1.000  O
  O27      1.0000 0.03805  0.88317  0.73988  Biso   1.000  O
  O28      1.0000 0.96747  0.87229  0.98723  Biso   1.000  O
  O29      1.0000 0.46269  0.61679  0.73988  Biso   1.000  O
  O30      1.0000 0.53326  0.62768  0.98723  Biso   1.000  O
  O31      1.0000 0.47276  0.87530  0.97190  Biso   1.000  O
  O32      1.0000 0.53668  0.86975  0.72646  Biso   1.000  O
  Hf1      1.0000 0.25039  0.24999  0.10669  Biso   1.000  Hf
