data_image0
_cell_length_a       10.0615
_cell_length_b       5.19333
_cell_length_c       10.4431
_cell_angle_alpha    89.477
_cell_angle_beta     91.4773
_cell_angle_gamma    89.9216

_symmetry_space_group_name_H-M    "P 1"
_symmetry_int_tables_number       1

loop_
  _symmetry_equiv_pos_as_xyz
  'x, y, z'

loop_
  _atom_site_label
  _atom_site_occupancy
  _atom_site_fract_x
  _atom_site_fract_y
  _atom_site_fract_z
  _atom_site_thermal_displace_type
  _atom_site_B_iso_or_equiv
  _atom_site_type_symbol
  Hg1      1.0000 0.12699  0.03996  0.18246  Biso   1.000  Hg
  Zr1      1.0000 0.13101  0.46117  0.42110  Biso   1.000  Zr
  Zr2      1.0000 0.36133  0.54005  0.15700  Biso   1.000  Zr
  Zr3      1.0000 0.36034  0.95912  0.41631  Biso   1.000  Zr
  Zr4      1.0000 0.64168  0.04003  0.08000  Biso   1.000  Zr
  Zr5      1.0000 0.63641  0.46195  0.32977  Biso   1.000  Zr
  Zr6      1.0000 0.86185  0.53406  0.08169  Biso   1.000  Zr
  Zr7      1.0000 0.85754  0.96652  0.34326  Biso   1.000  Zr
  O1       1.0000 0.04653  0.35070  0.09409  Biso   1.000  O
  O2       1.0000 0.02933  0.13519  0.38832  Biso   1.000  O
  O3       1.0000 0.47129  0.83889  0.08548  Biso   1.000  O
  O4       1.0000 0.45717  0.65150  0.33553  Biso   1.000  O
  O5       1.0000 0.26977  0.25310  0.28657  Biso   1.000  O
  O6       1.0000 0.29130  0.26093  0.02880  Biso   1.000  O
  O7       1.0000 0.21896  0.74818  0.28268  Biso   1.000  O
  O8       1.0000 0.23519  0.73778  0.02893  Biso   1.000  O
  O9       1.0000 0.53960  0.34342  0.15897  Biso   1.000  O
  O10      1.0000 0.53252  0.15786  0.40883  Biso   1.000  O
  O11      1.0000 0.95171  0.86149  0.16250  Biso   1.000  O
  O12      1.0000 0.95393  0.63906  0.40939  Biso   1.000  O
  O13      1.0000 0.76957  0.25420  0.46248  Biso   1.000  O
  O14      1.0000 0.77897  0.25291  0.21245  Biso   1.000  O
  O15      1.0000 0.71964  0.75445  0.45914  Biso   1.000  O
  O16      1.0000 0.72859  0.74851  0.20785  Biso   1.000  O
  Zr8      1.0000 0.13563  0.04237  0.66265  Biso   1.000  Zr
  Zr9      1.0000 0.14788  0.45484  0.91337  Biso   1.000  Zr
  Zr10     1.0000 0.35949  0.54049  0.66559  Biso   1.000  Zr
  Zr11     1.0000 0.36138  0.95862  0.91573  Biso   1.000  Zr
  Zr12     1.0000 0.63660  0.04180  0.58317  Biso   1.000  Zr
  Zr13     1.0000 0.63892  0.45857  0.83050  Biso   1.000  Zr
  Zr14     1.0000 0.85987  0.53984  0.58558  Biso   1.000  Zr
  Zr15     1.0000 0.86615  0.95762  0.83357  Biso   1.000  Zr
  O17      1.0000 0.04264  0.37843  0.60549  Biso   1.000  O
  O18      1.0000 0.04105  0.14407  0.84061  Biso   1.000  O
  O19      1.0000 0.46330  0.84128  0.58437  Biso   1.000  O
  O20      1.0000 0.46620  0.65830  0.83340  Biso   1.000  O
  O21      1.0000 0.27699  0.24500  0.78399  Biso   1.000  O
  O22      1.0000 0.27545  0.25151  0.53669  Biso   1.000  O
  O23      1.0000 0.22358  0.74671  0.78413  Biso   1.000  O
  O24      1.0000 0.22244  0.75324  0.53596  Biso   1.000  O
  O25      1.0000 0.53501  0.34223  0.65970  Biso   1.000  O
  O26      1.0000 0.54086  0.15357  0.90902  Biso   1.000  O
  O27      1.0000 0.95767  0.85938  0.65733  Biso   1.000  O
  O28      1.0000 0.96735  0.64703  0.91655  Biso   1.000  O
  O29      1.0000 0.78123  0.24641  0.96035  Biso   1.000  O
  O30      1.0000 0.77664  0.25180  0.71087  Biso   1.000  O
  O31      1.0000 0.72762  0.74563  0.95877  Biso   1.000  O
  O32      1.0000 0.72483  0.75023  0.70898  Biso   1.000  O
