data_image0
_cell_length_a       10.1561
_cell_length_b       10.3724
_cell_length_c       10.4847
_cell_angle_alpha    89.7725
_cell_angle_beta     81.0664
_cell_angle_gamma    89.9869

_symmetry_space_group_name_H-M    "P 1"
_symmetry_int_tables_number       1

loop_
  _symmetry_equiv_pos_as_xyz
  'x, y, z'

loop_
  _atom_site_label
  _atom_site_occupancy
  _atom_site_fract_x
  _atom_site_fract_y
  _atom_site_fract_z
  _atom_site_thermal_displace_type
  _atom_site_B_iso_or_equiv
  _atom_site_type_symbol
  Hg1      1.0000 0.12628  0.01739  0.16121  Biso   1.000  Hg
  Zr1      1.0000 0.13520  0.23169  0.39865  Biso   1.000  Zr
  Zr2      1.0000 0.36017  0.26991  0.09976  Biso   1.000  Zr
  Zr3      1.0000 0.36035  0.47968  0.35300  Biso   1.000  Zr
  O1       1.0000 0.04337  0.17271  0.08491  Biso   1.000  O
  O2       1.0000 0.02623  0.07616  0.37281  Biso   1.000  O
  O3       1.0000 0.46249  0.42056  0.16776  Biso   1.000  O
  O4       1.0000 0.46250  0.32999  0.41776  Biso   1.000  O
  O5       1.0000 0.26935  0.12468  0.23559  Biso   1.000  O
  O6       1.0000 0.27700  0.12230  0.48524  Biso   1.000  O
  O7       1.0000 0.22421  0.38024  0.00730  Biso   1.000  O
  O8       1.0000 0.22472  0.36844  0.25774  Biso   1.000  O
  Zr4      1.0000 0.13729  0.02141  0.64011  Biso   1.000  Zr
  Zr5      1.0000 0.14344  0.22481  0.89173  Biso   1.000  Zr
  Zr6      1.0000 0.36013  0.27143  0.60346  Biso   1.000  Zr
  Zr7      1.0000 0.36171  0.47910  0.85373  Biso   1.000  Zr
  O9       1.0000 0.04235  0.18455  0.59419  Biso   1.000  O
  O10      1.0000 0.03952  0.07414  0.83244  Biso   1.000  O
  O11      1.0000 0.46369  0.42046  0.66800  Biso   1.000  O
  O12      1.0000 0.46781  0.33330  0.91921  Biso   1.000  O
  O13      1.0000 0.27561  0.12711  0.73390  Biso   1.000  O
  O14      1.0000 0.28908  0.13043  0.97562  Biso   1.000  O
  O15      1.0000 0.22327  0.38134  0.50812  Biso   1.000  O
  O16      1.0000 0.22517  0.36963  0.75812  Biso   1.000  O
  Zr8      1.0000 0.13942  0.52043  0.14383  Biso   1.000  Zr
  Zr9      1.0000 0.13502  0.72700  0.39487  Biso   1.000  Zr
  Zr10     1.0000 0.36242  0.77191  0.09770  Biso   1.000  Zr
  Zr11     1.0000 0.36163  0.97824  0.35240  Biso   1.000  Zr
  O17      1.0000 0.03952  0.67530  0.08417  Biso   1.000  O
  O18      1.0000 0.03802  0.57465  0.33231  Biso   1.000  O
  O19      1.0000 0.46375  0.91896  0.16940  Biso   1.000  O
  O20      1.0000 0.46403  0.82910  0.41637  Biso   1.000  O
  O21      1.0000 0.27574  0.63154  0.23957  Biso   1.000  O
  O22      1.0000 0.27530  0.62110  0.48958  Biso   1.000  O
  O23      1.0000 0.23282  0.87278  0.99620  Biso   1.000  O
  O24      1.0000 0.21863  0.86865  0.25243  Biso   1.000  O
  Zr12     1.0000 0.13926  0.52128  0.64588  Biso   1.000  Zr
  Zr13     1.0000 0.14183  0.73185  0.89306  Biso   1.000  Zr
  Zr14     1.0000 0.36091  0.77152  0.60223  Biso   1.000  Zr
  Zr15     1.0000 0.35976  0.97984  0.85244  Biso   1.000  Zr
  O25      1.0000 0.03756  0.67296  0.58288  Biso   1.000  O
  O26      1.0000 0.03990  0.57548  0.83425  Biso   1.000  O
  O27      1.0000 0.46382  0.92013  0.66697  Biso   1.000  O
  O28      1.0000 0.47003  0.83211  0.91634  Biso   1.000  O
  O29      1.0000 0.27722  0.62992  0.73932  Biso   1.000  O
  O30      1.0000 0.27695  0.61904  0.98933  Biso   1.000  O
  O31      1.0000 0.22437  0.87968  0.50335  Biso   1.000  O
  O32      1.0000 0.22249  0.87087  0.75208  Biso   1.000  O
  Zr16     1.0000 0.63970  0.01989  0.14557  Biso   1.000  Zr
  Zr17     1.0000 0.63680  0.22999  0.39719  Biso   1.000  Zr
  Zr18     1.0000 0.86006  0.27015  0.10758  Biso   1.000  Zr
  Zr19     1.0000 0.85979  0.47904  0.35554  Biso   1.000  Zr
  O33      1.0000 0.53702  0.17015  0.08178  Biso   1.000  O
  O34      1.0000 0.53545  0.07907  0.33113  Biso   1.000  O
  O35      1.0000 0.96283  0.42122  0.16854  Biso   1.000  O
  O36      1.0000 0.96059  0.32987  0.42144  Biso   1.000  O
  O37      1.0000 0.77554  0.12966  0.24501  Biso   1.000  O
  O38      1.0000 0.77171  0.12277  0.49631  Biso   1.000  O
  O39      1.0000 0.72588  0.37812  0.01104  Biso   1.000  O
  O40      1.0000 0.72371  0.37038  0.25996  Biso   1.000  O
  Zr20     1.0000 0.63739  0.02162  0.64782  Biso   1.000  Zr
  Zr21     1.0000 0.63955  0.22816  0.89630  Biso   1.000  Zr
  Zr22     1.0000 0.86120  0.27202  0.60837  Biso   1.000  Zr
  Zr23     1.0000 0.86475  0.47747  0.85653  Biso   1.000  Zr
  O41      1.0000 0.53411  0.17071  0.58130  Biso   1.000  O
  O42      1.0000 0.53818  0.07966  0.83068  Biso   1.000  O
  O43      1.0000 0.96193  0.42502  0.66990  Biso   1.000  O
  O44      1.0000 0.96492  0.32468  0.92289  Biso   1.000  O
  O45      1.0000 0.77767  0.12950  0.74318  Biso   1.000  O
  O46      1.0000 0.77725  0.11993  0.99322  Biso   1.000  O
  O47      1.0000 0.72254  0.37974  0.51026  Biso   1.000  O
  O48      1.0000 0.72517  0.37061  0.76081  Biso   1.000  O
  Zr24     1.0000 0.63716  0.51991  0.14469  Biso   1.000  Zr
  Zr25     1.0000 0.63914  0.72810  0.39438  Biso   1.000  Zr
  Zr26     1.0000 0.86135  0.76673  0.10233  Biso   1.000  Zr
  Zr27     1.0000 0.85729  0.98191  0.36472  Biso   1.000  Zr
  O49      1.0000 0.53760  0.66944  0.07845  Biso   1.000  O
  O50      1.0000 0.53649  0.57924  0.33016  Biso   1.000  O
  O51      1.0000 0.95029  0.93041  0.16842  Biso   1.000  O
  O52      1.0000 0.95869  0.82294  0.41568  Biso   1.000  O
  O53      1.0000 0.77581  0.62814  0.24053  Biso   1.000  O
  O54      1.0000 0.77597  0.62064  0.49106  Biso   1.000  O
  O55      1.0000 0.72482  0.87874  0.00922  Biso   1.000  O
  O56      1.0000 0.72763  0.87012  0.25807  Biso   1.000  O
  Zr28     1.0000 0.63862  0.52106  0.64575  Biso   1.000  Zr
  Zr29     1.0000 0.64050  0.72871  0.89390  Biso   1.000  Zr
  Zr30     1.0000 0.86069  0.77035  0.60559  Biso   1.000  Zr
  Zr31     1.0000 0.86272  0.97923  0.85534  Biso   1.000  Zr
  O57      1.0000 0.53671  0.67050  0.57928  Biso   1.000  O
  O58      1.0000 0.53664  0.58057  0.82929  Biso   1.000  O
  O59      1.0000 0.96114  0.92433  0.66457  Biso   1.000  O
  O60      1.0000 0.96238  0.82523  0.91644  Biso   1.000  O
  O61      1.0000 0.77745  0.62853  0.74136  Biso   1.000  O
  O62      1.0000 0.77812  0.61964  0.99143  Biso   1.000  O
  O63      1.0000 0.72203  0.87961  0.51063  Biso   1.000  O
  O64      1.0000 0.72569  0.87071  0.75903  Biso   1.000  O
