data_image0
_cell_length_a       10.2424
_cell_length_b       10.3347
_cell_length_c       5.25836
_cell_angle_alpha    90.0154
_cell_angle_beta     80.3284
_cell_angle_gamma    89.9879

_symmetry_space_group_name_H-M    "P 1"
_symmetry_int_tables_number       1

loop_
  _symmetry_equiv_pos_as_xyz
  'x, y, z'

loop_
  _atom_site_label
  _atom_site_occupancy
  _atom_site_fract_x
  _atom_site_fract_y
  _atom_site_fract_z
  _atom_site_thermal_displace_type
  _atom_site_B_iso_or_equiv
  _atom_site_type_symbol
  In1      1.0000 0.13700  0.01617  0.29310  Biso   1.000  In
  Zr1      1.0000 0.14009  0.52146  0.29022  Biso   1.000  Zr
  Zr2      1.0000 0.63924  0.02138  0.29192  Biso   1.000  Zr
  Zr3      1.0000 0.63859  0.52000  0.29038  Biso   1.000  Zr
  Zr4      1.0000 0.14025  0.22749  0.78955  Biso   1.000  Zr
  Zr5      1.0000 0.14097  0.73016  0.79067  Biso   1.000  Zr
  Zr6      1.0000 0.63895  0.22949  0.79187  Biso   1.000  Zr
  Zr7      1.0000 0.63832  0.72864  0.79054  Biso   1.000  Zr
  Zr8      1.0000 0.35854  0.26870  0.20889  Biso   1.000  Zr
  Zr9      1.0000 0.36126  0.77216  0.20851  Biso   1.000  Zr
  Zr10     1.0000 0.86229  0.27028  0.20861  Biso   1.000  Zr
  Zr11     1.0000 0.85996  0.77070  0.20978  Biso   1.000  Zr
  Zr12     1.0000 0.36062  0.47828  0.70834  Biso   1.000  Zr
  Zr13     1.0000 0.36012  0.98046  0.70821  Biso   1.000  Zr
  Zr14     1.0000 0.86087  0.47922  0.70921  Biso   1.000  Zr
  Zr15     1.0000 0.85898  0.97885  0.71157  Biso   1.000  Zr
  O1       1.0000 0.03536  0.17277  0.15715  Biso   1.000  O
  O2       1.0000 0.03448  0.66758  0.15961  Biso   1.000  O
  O3       1.0000 0.53437  0.16732  0.15831  Biso   1.000  O
  O4       1.0000 0.53402  0.66584  0.15721  Biso   1.000  O
  O5       1.0000 0.03002  0.08336  0.67273  Biso   1.000  O
  O6       1.0000 0.03440  0.58328  0.65864  Biso   1.000  O
  O7       1.0000 0.53535  0.08324  0.65788  Biso   1.000  O
  O8       1.0000 0.53359  0.58295  0.65660  Biso   1.000  O
  O9       1.0000 0.46600  0.41541  0.34259  Biso   1.000  O
  O10      1.0000 0.46749  0.91674  0.34136  Biso   1.000  O
  O11      1.0000 0.96535  0.41917  0.34027  Biso   1.000  O
  O12      1.0000 0.95753  0.91626  0.34450  Biso   1.000  O
  O13      1.0000 0.46696  0.33436  0.84288  Biso   1.000  O
  O14      1.0000 0.46701  0.83342  0.84206  Biso   1.000  O
  O15      1.0000 0.96573  0.33411  0.84024  Biso   1.000  O
  O16      1.0000 0.96566  0.83210  0.84128  Biso   1.000  O
  O17      1.0000 0.27768  0.12873  0.48180  Biso   1.000  O
  O18      1.0000 0.27600  0.62718  0.47993  Biso   1.000  O
  O19      1.0000 0.77521  0.12910  0.48257  Biso   1.000  O
  O20      1.0000 0.77456  0.62819  0.48053  Biso   1.000  O
  O21      1.0000 0.28130  0.12601  0.96937  Biso   1.000  O
  O22      1.0000 0.27580  0.62149  0.98033  Biso   1.000  O
  O23      1.0000 0.77437  0.12187  0.98306  Biso   1.000  O
  O24      1.0000 0.77463  0.62074  0.98005  Biso   1.000  O
  O25      1.0000 0.22499  0.37999  0.01797  Biso   1.000  O
  O26      1.0000 0.22783  0.87713  0.01337  Biso   1.000  O
  O27      1.0000 0.72487  0.37855  0.01903  Biso   1.000  O
  O28      1.0000 0.72421  0.87818  0.01939  Biso   1.000  O
  O29      1.0000 0.22436  0.37157  0.51777  Biso   1.000  O
  O30      1.0000 0.22797  0.86743  0.51991  Biso   1.000  O
  O31      1.0000 0.72514  0.37166  0.51936  Biso   1.000  O
  O32      1.0000 0.72170  0.87086  0.52086  Biso   1.000  O
