data_image0
_cell_length_a       10.1251
_cell_length_b       10.3221
_cell_length_c       10.5655
_cell_angle_alpha    89.9056
_cell_angle_beta     90.268
_cell_angle_gamma    90.1355

_symmetry_space_group_name_H-M    "P 1"
_symmetry_int_tables_number       1

loop_
  _symmetry_equiv_pos_as_xyz
  'x, y, z'

loop_
  _atom_site_label
  _atom_site_occupancy
  _atom_site_fract_x
  _atom_site_fract_y
  _atom_site_fract_z
  _atom_site_thermal_displace_type
  _atom_site_B_iso_or_equiv
  _atom_site_type_symbol
  Zr1      1.0000 0.13708  0.02061  0.17243  Biso   1.000  Zr
  Zr2      1.0000 0.13765  0.22800  0.42455  Biso   1.000  Zr
  Zr3      1.0000 0.35013  0.26981  0.17783  Biso   1.000  Zr
  Zr4      1.0000 0.36299  0.47843  0.42105  Biso   1.000  Zr
  Zr5      1.0000 0.64584  0.01734  0.07512  Biso   1.000  Zr
  Zr6      1.0000 0.63911  0.22729  0.32888  Biso   1.000  Zr
  Zr7      1.0000 0.85979  0.26762  0.07924  Biso   1.000  Zr
  Zr8      1.0000 0.86449  0.47968  0.33053  Biso   1.000  Zr
  O1       1.0000 0.03093  0.16256  0.08255  Biso   1.000  O
  O2       1.0000 0.03109  0.08618  0.33319  Biso   1.000  O
  O3       1.0000 0.45338  0.43814  0.09747  Biso   1.000  O
  O4       1.0000 0.46793  0.33458  0.33120  Biso   1.000  O
  O5       1.0000 0.27062  0.12528  0.29874  Biso   1.000  O
  O6       1.0000 0.27160  0.12403  0.04606  Biso   1.000  O
  O7       1.0000 0.22147  0.37583  0.29864  Biso   1.000  O
  O8       1.0000 0.22181  0.37524  0.04466  Biso   1.000  O
  O9       1.0000 0.51263  0.14075  0.18266  Biso   1.000  O
  O10      1.0000 0.53140  0.08861  0.42292  Biso   1.000  O
  O11      1.0000 0.96895  0.41256  0.16898  Biso   1.000  O
  O12      1.0000 0.96936  0.33702  0.42034  Biso   1.000  O
  O13      1.0000 0.77551  0.12410  0.45448  Biso   1.000  O
  O14      1.0000 0.77711  0.12269  0.20885  Biso   1.000  O
  O15      1.0000 0.72535  0.37320  0.45598  Biso   1.000  O
  O16      1.0000 0.72968  0.38221  0.20990  Biso   1.000  O
  Zr9      1.0000 0.14123  0.02077  0.67224  Biso   1.000  Zr
  Zr10     1.0000 0.13758  0.22792  0.92183  Biso   1.000  Zr
  Zr11     1.0000 0.36199  0.27196  0.67284  Biso   1.000  Zr
  Zr12     1.0000 0.36060  0.48056  0.92149  Biso   1.000  Zr
  Zr13     1.0000 0.64026  0.01986  0.57803  Biso   1.000  Zr
  Zr14     1.0000 0.64271  0.22631  0.82018  Biso   1.000  Zr
  Zr15     1.0000 0.86258  0.27096  0.57837  Biso   1.000  Zr
  Zr16     1.0000 0.86380  0.47974  0.82853  Biso   1.000  Zr
  O17      1.0000 0.03248  0.16295  0.58326  Biso   1.000  O
  O18      1.0000 0.03510  0.08461  0.83095  Biso   1.000  O
  O19      1.0000 0.47083  0.41083  0.57835  Biso   1.000  O
  O20      1.0000 0.47168  0.34333  0.82522  Biso   1.000  O
  O21      1.0000 0.27717  0.12478  0.79649  Biso   1.000  O
  O22      1.0000 0.27574  0.12498  0.54665  Biso   1.000  O
  O23      1.0000 0.22461  0.37341  0.79631  Biso   1.000  O
  O24      1.0000 0.22627  0.37548  0.54687  Biso   1.000  O
  O25      1.0000 0.53047  0.15919  0.66983  Biso   1.000  O
  O26      1.0000 0.53151  0.08807  0.92038  Biso   1.000  O
  O27      1.0000 0.96944  0.41385  0.66885  Biso   1.000  O
  O28      1.0000 0.96443  0.33519  0.91825  Biso   1.000  O
  O29      1.0000 0.78846  0.11750  0.94656  Biso   1.000  O
  O30      1.0000 0.77768  0.12311  0.70048  Biso   1.000  O
  O31      1.0000 0.71658  0.37518  0.95589  Biso   1.000  O
  O32      1.0000 0.72808  0.37491  0.70415  Biso   1.000  O
  Zr17     1.0000 0.13871  0.52119  0.17109  Biso   1.000  Zr
  Zr18     1.0000 0.14081  0.72851  0.42157  Biso   1.000  Zr
  Zr19     1.0000 0.36174  0.77343  0.17214  Biso   1.000  Zr
  Zr20     1.0000 0.36216  0.97900  0.42307  Biso   1.000  Zr
  Zr21     1.0000 0.63868  0.53137  0.08294  Biso   1.000  Zr
  Zr22     1.0000 0.64000  0.73151  0.33040  Biso   1.000  Zr
  Zr23     1.0000 0.86374  0.77079  0.07964  Biso   1.000  Zr
  Zr24     1.0000 0.86226  0.97814  0.33042  Biso   1.000  Zr
  O33      1.0000 0.03248  0.66278  0.08149  Biso   1.000  O
  O34      1.0000 0.03385  0.58748  0.33108  Biso   1.000  O
  O35      1.0000 0.47046  0.91016  0.07772  Biso   1.000  O
  O36      1.0000 0.46966  0.83958  0.33198  Biso   1.000  O
  O37      1.0000 0.27680  0.62489  0.29482  Biso   1.000  O
  O38      1.0000 0.27473  0.62749  0.04429  Biso   1.000  O
  O39      1.0000 0.22597  0.87505  0.29616  Biso   1.000  O
  O40      1.0000 0.22449  0.87582  0.04623  Biso   1.000  O
  O41      1.0000 0.53492  0.67194  0.16972  Biso   1.000  O
  O42      1.0000 0.53279  0.58707  0.41772  Biso   1.000  O
  O43      1.0000 0.96916  0.91275  0.16920  Biso   1.000  O
  O44      1.0000 0.96969  0.83438  0.41838  Biso   1.000  O
  O45      1.0000 0.77621  0.62408  0.45559  Biso   1.000  O
  O46      1.0000 0.77717  0.62861  0.20661  Biso   1.000  O
  O47      1.0000 0.72662  0.87438  0.45617  Biso   1.000  O
  O48      1.0000 0.72819  0.87487  0.20647  Biso   1.000  O
  Zr25     1.0000 0.14025  0.52033  0.67107  Biso   1.000  Zr
  Zr26     1.0000 0.13976  0.72864  0.92172  Biso   1.000  Zr
  Zr27     1.0000 0.36327  0.77088  0.67180  Biso   1.000  Zr
  Zr28     1.0000 0.36095  0.97771  0.92316  Biso   1.000  Zr
  Zr29     1.0000 0.63961  0.52039  0.57759  Biso   1.000  Zr
  Zr30     1.0000 0.63967  0.72799  0.82762  Biso   1.000  Zr
  Zr31     1.0000 0.86408  0.76999  0.57881  Biso   1.000  Zr
  Zr32     1.0000 0.86474  0.97580  0.82724  Biso   1.000  Zr
  O49      1.0000 0.03380  0.66213  0.58159  Biso   1.000  O
  O50      1.0000 0.03284  0.58612  0.83132  Biso   1.000  O
  O51      1.0000 0.47052  0.91054  0.58042  Biso   1.000  O
  O52      1.0000 0.47107  0.83869  0.82950  Biso   1.000  O
  O53      1.0000 0.27630  0.62340  0.79560  Biso   1.000  O
  O54      1.0000 0.27698  0.62473  0.54512  Biso   1.000  O
  O55      1.0000 0.22665  0.87323  0.79599  Biso   1.000  O
  O56      1.0000 0.22673  0.87506  0.54597  Biso   1.000  O
  O57      1.0000 0.53196  0.66092  0.66910  Biso   1.000  O
  O58      1.0000 0.53225  0.58817  0.92031  Biso   1.000  O
  O59      1.0000 0.97194  0.91180  0.66667  Biso   1.000  O
  O60      1.0000 0.97031  0.83555  0.91909  Biso   1.000  O
  O61      1.0000 0.77731  0.62400  0.95494  Biso   1.000  O
  O62      1.0000 0.77622  0.62471  0.70481  Biso   1.000  O
  O63      1.0000 0.72672  0.87144  0.95498  Biso   1.000  O
  O64      1.0000 0.72711  0.87373  0.70447  Biso   1.000  O
  Ir1      1.0000 0.58032  0.27050  0.06054  Biso   1.000  Ir
