data_image0
_cell_length_a       5.07201
_cell_length_b       10.5351
_cell_length_c       10.1318
_cell_angle_alpha    89.1594
_cell_angle_beta     89.8286
_cell_angle_gamma    89.9655

_symmetry_space_group_name_H-M    "P 1"
_symmetry_int_tables_number       1

loop_
  _symmetry_equiv_pos_as_xyz
  'x, y, z'

loop_
  _atom_site_label
  _atom_site_occupancy
  _atom_site_fract_x
  _atom_site_fract_y
  _atom_site_fract_z
  _atom_site_thermal_displace_type
  _atom_site_B_iso_or_equiv
  _atom_site_type_symbol
  Zr1      1.0000 0.26327  0.01271  0.11589  Biso   1.000  Zr
  Zr2      1.0000 0.26539  0.23227  0.38447  Biso   1.000  Zr
  Zr3      1.0000 0.68518  0.24953  0.11964  Biso   1.000  Zr
  Zr4      1.0000 0.74217  0.48666  0.37815  Biso   1.000  Zr
  O1       1.0000 0.99761  0.17255  0.22819  Biso   1.000  O
  O2       1.0000 0.07034  0.06475  0.45313  Biso   1.000  O
  O3       1.0000 0.92771  0.44765  0.20209  Biso   1.000  O
  O4       1.0000 0.94267  0.32279  0.45417  Biso   1.000  O
  O5       1.0000 0.50276  0.10923  0.24982  Biso   1.000  O
  O6       1.0000 0.54735  0.13510  0.49684  Biso   1.000  O
  O7       1.0000 0.46889  0.38440  0.50260  Biso   1.000  O
  O8       1.0000 0.47047  0.36764  0.25783  Biso   1.000  O
  Zr5      1.0000 0.27433  0.01179  0.62359  Biso   1.000  Zr
  Zr6      1.0000 0.27615  0.22142  0.86466  Biso   1.000  Zr
  Zr7      1.0000 0.73755  0.26683  0.62652  Biso   1.000  Zr
  Zr8      1.0000 0.73901  0.48487  0.87451  Biso   1.000  Zr
  O9       1.0000 0.07271  0.17846  0.69117  Biso   1.000  O
  O10      1.0000 0.08825  0.05491  0.93253  Biso   1.000  O
  O11      1.0000 0.93608  0.43298  0.69815  Biso   1.000  O
  O12      1.0000 0.92297  0.31168  0.93421  Biso   1.000  O
  O13      1.0000 0.54446  0.11125  0.74332  Biso   1.000  O
  O14      1.0000 0.57462  0.11655  0.98791  Biso   1.000  O
  O15      1.0000 0.45845  0.39008  0.00113  Biso   1.000  O
  O16      1.0000 0.46896  0.36366  0.75036  Biso   1.000  O
  Zr9      1.0000 0.26816  0.53489  0.12857  Biso   1.000  Zr
  Zr10     1.0000 0.27464  0.73869  0.37750  Biso   1.000  Zr
  Zr11     1.0000 0.73099  0.76760  0.12628  Biso   1.000  Zr
  Zr12     1.0000 0.73973  0.98812  0.37120  Biso   1.000  Zr
  O17      1.0000 0.07267  0.69248  0.19942  Biso   1.000  O
  O18      1.0000 0.07325  0.57160  0.44916  Biso   1.000  O
  O19      1.0000 0.92770  0.93494  0.19078  Biso   1.000  O
  O20      1.0000 0.93562  0.81967  0.44341  Biso   1.000  O
  O21      1.0000 0.54332  0.62279  0.25244  Biso   1.000  O
  O22      1.0000 0.54047  0.63503  0.50013  Biso   1.000  O
  O23      1.0000 0.47227  0.88585  0.49629  Biso   1.000  O
  O24      1.0000 0.46516  0.86757  0.24719  Biso   1.000  O
  Zr13     1.0000 0.27177  0.51394  0.62567  Biso   1.000  Zr
  Zr14     1.0000 0.27036  0.73398  0.87258  Biso   1.000  Zr
  Zr15     1.0000 0.74291  0.76284  0.62161  Biso   1.000  Zr
  Zr16     1.0000 0.74307  0.97499  0.86992  Biso   1.000  Zr
  O25      1.0000 0.07223  0.68054  0.69670  Biso   1.000  O
  O26      1.0000 0.06821  0.56901  0.94842  Biso   1.000  O
  O27      1.0000 0.94438  0.92611  0.69391  Biso   1.000  O
  O28      1.0000 0.93669  0.81371  0.94722  Biso   1.000  O
  O29      1.0000 0.53890  0.61265  0.74890  Biso   1.000  O
  O30      1.0000 0.53969  0.63778  0.99817  Biso   1.000  O
  O31      1.0000 0.46329  0.87969  0.99716  Biso   1.000  O
  O32      1.0000 0.47566  0.86107  0.74584  Biso   1.000  O
  Ir1      1.0000 0.17942  0.29379  0.10841  Biso   1.000  Ir
