data_image0
_cell_length_a       10.0913
_cell_length_b       10.2851
_cell_length_c       10.5049
_cell_angle_alpha    90.0084
_cell_angle_beta     90.1185
_cell_angle_gamma    89.8322

_symmetry_space_group_name_H-M    "P 1"
_symmetry_int_tables_number       1

loop_
  _symmetry_equiv_pos_as_xyz
  'x, y, z'

loop_
  _atom_site_label
  _atom_site_occupancy
  _atom_site_fract_x
  _atom_site_fract_y
  _atom_site_fract_z
  _atom_site_thermal_displace_type
  _atom_site_B_iso_or_equiv
  _atom_site_type_symbol
  Ir1      1.0000 0.13025  0.01313  0.18514  Biso   1.000  Ir
  Zr1      1.0000 0.13815  0.02108  0.66921  Biso   1.000  Zr
  Zr2      1.0000 0.13895  0.52252  0.17098  Biso   1.000  Zr
  Zr3      1.0000 0.13909  0.52107  0.67257  Biso   1.000  Zr
  Zr4      1.0000 0.13986  0.23103  0.41876  Biso   1.000  Zr
  Zr5      1.0000 0.14176  0.22532  0.92245  Biso   1.000  Zr
  Zr6      1.0000 0.13694  0.72790  0.42208  Biso   1.000  Zr
  Zr7      1.0000 0.13904  0.73202  0.92195  Biso   1.000  Zr
  Zr8      1.0000 0.35917  0.27012  0.16858  Biso   1.000  Zr
  Zr9      1.0000 0.36146  0.27170  0.67086  Biso   1.000  Zr
  Zr10     1.0000 0.35926  0.77518  0.16984  Biso   1.000  Zr
  Zr11     1.0000 0.36134  0.77123  0.67180  Biso   1.000  Zr
  Zr12     1.0000 0.36109  0.47929  0.42094  Biso   1.000  Zr
  Zr13     1.0000 0.36111  0.47930  0.92141  Biso   1.000  Zr
  Zr14     1.0000 0.36075  0.97929  0.42102  Biso   1.000  Zr
  Zr15     1.0000 0.36058  0.98117  0.92150  Biso   1.000  Zr
  Zr16     1.0000 0.63887  0.02183  0.07749  Biso   1.000  Zr
  Zr17     1.0000 0.63765  0.02128  0.57969  Biso   1.000  Zr
  Zr18     1.0000 0.63882  0.51978  0.07911  Biso   1.000  Zr
  Zr19     1.0000 0.63909  0.52084  0.57985  Biso   1.000  Zr
  Zr20     1.0000 0.63755  0.22934  0.32831  Biso   1.000  Zr
  Zr21     1.0000 0.63978  0.22985  0.82966  Biso   1.000  Zr
  Zr22     1.0000 0.63678  0.72763  0.32819  Biso   1.000  Zr
  Zr23     1.0000 0.63865  0.72893  0.82945  Biso   1.000  Zr
  Zr24     1.0000 0.86758  0.26675  0.08180  Biso   1.000  Zr
  Zr25     1.0000 0.86157  0.27091  0.57918  Biso   1.000  Zr
  Zr26     1.0000 0.86096  0.76977  0.07803  Biso   1.000  Zr
  Zr27     1.0000 0.86002  0.77073  0.57951  Biso   1.000  Zr
  Zr28     1.0000 0.86074  0.47868  0.32904  Biso   1.000  Zr
  Zr29     1.0000 0.86327  0.47735  0.83121  Biso   1.000  Zr
  Zr30     1.0000 0.85616  0.97846  0.33016  Biso   1.000  Zr
  Zr31     1.0000 0.86184  0.97957  0.82899  Biso   1.000  Zr
  O1       1.0000 0.03876  0.15639  0.08526  Biso   1.000  O
  O2       1.0000 0.03143  0.16156  0.57719  Biso   1.000  O
  O3       1.0000 0.03255  0.66515  0.08302  Biso   1.000  O
  O4       1.0000 0.03086  0.66327  0.58274  Biso   1.000  O
  O5       1.0000 0.03100  0.08791  0.32754  Biso   1.000  O
  O6       1.0000 0.03209  0.08679  0.82951  Biso   1.000  O
  O7       1.0000 0.03141  0.58562  0.33315  Biso   1.000  O
  O8       1.0000 0.03302  0.58635  0.83416  Biso   1.000  O
  O9       1.0000 0.46667  0.41618  0.08466  Biso   1.000  O
  O10      1.0000 0.46664  0.41727  0.58457  Biso   1.000  O
  O11      1.0000 0.46819  0.91557  0.08256  Biso   1.000  O
  O12      1.0000 0.46639  0.91673  0.58481  Biso   1.000  O
  O13      1.0000 0.46500  0.33168  0.33558  Biso   1.000  O
  O14      1.0000 0.46776  0.33474  0.83397  Biso   1.000  O
  O15      1.0000 0.46390  0.83362  0.33391  Biso   1.000  O
  O16      1.0000 0.46682  0.83362  0.83441  Biso   1.000  O
  O17      1.0000 0.27333  0.11807  0.28844  Biso   1.000  O
  O18      1.0000 0.27549  0.12309  0.79063  Biso   1.000  O
  O19      1.0000 0.27513  0.62555  0.29515  Biso   1.000  O
  O20      1.0000 0.27571  0.62449  0.79523  Biso   1.000  O
  O21      1.0000 0.28898  0.13638  0.03537  Biso   1.000  O
  O22      1.0000 0.27600  0.12730  0.54134  Biso   1.000  O
  O23      1.0000 0.27653  0.63077  0.04443  Biso   1.000  O
  O24      1.0000 0.27498  0.62563  0.54557  Biso   1.000  O
  O25      1.0000 0.22421  0.37416  0.29446  Biso   1.000  O
  O26      1.0000 0.22539  0.37392  0.79516  Biso   1.000  O
  O27      1.0000 0.21790  0.87432  0.29354  Biso   1.000  O
  O28      1.0000 0.22437  0.87451  0.79534  Biso   1.000  O
  O29      1.0000 0.22278  0.37999  0.04482  Biso   1.000  O
  O30      1.0000 0.22380  0.37585  0.54429  Biso   1.000  O
  O31      1.0000 0.21978  0.88569  0.04732  Biso   1.000  O
  O32      1.0000 0.22449  0.87550  0.54444  Biso   1.000  O
  O33      1.0000 0.53414  0.16696  0.16506  Biso   1.000  O
  O34      1.0000 0.53358  0.16740  0.66522  Biso   1.000  O
  O35      1.0000 0.53187  0.66658  0.16549  Biso   1.000  O
  O36      1.0000 0.53352  0.66654  0.66555  Biso   1.000  O
  O37      1.0000 0.53272  0.08291  0.41524  Biso   1.000  O
  O38      1.0000 0.53526  0.08307  0.91376  Biso   1.000  O
  O39      1.0000 0.53284  0.58323  0.41559  Biso   1.000  O
  O40      1.0000 0.53397  0.58319  0.91585  Biso   1.000  O
  O41      1.0000 0.96861  0.41450  0.16856  Biso   1.000  O
  O42      1.0000 0.96939  0.41178  0.67005  Biso   1.000  O
  O43      1.0000 0.96900  0.91554  0.16597  Biso   1.000  O
  O44      1.0000 0.96782  0.91315  0.66761  Biso   1.000  O
  O45      1.0000 0.96771  0.33585  0.41799  Biso   1.000  O
  O46      1.0000 0.97029  0.33341  0.92151  Biso   1.000  O
  O47      1.0000 0.96674  0.83739  0.41752  Biso   1.000  O
  O48      1.0000 0.96700  0.83588  0.91813  Biso   1.000  O
  O49      1.0000 0.77690  0.12416  0.95541  Biso   1.000  O
  O50      1.0000 0.77570  0.12330  0.45480  Biso   1.000  O
  O51      1.0000 0.77664  0.62398  0.95619  Biso   1.000  O
  O52      1.0000 0.77487  0.62416  0.45532  Biso   1.000  O
  O53      1.0000 0.77571  0.12421  0.20545  Biso   1.000  O
  O54      1.0000 0.77593  0.12600  0.70480  Biso   1.000  O
  O55      1.0000 0.77459  0.62499  0.20535  Biso   1.000  O
  O56      1.0000 0.77642  0.62514  0.70624  Biso   1.000  O
  O57      1.0000 0.72679  0.37333  0.95658  Biso   1.000  O
  O58      1.0000 0.72428  0.37353  0.45603  Biso   1.000  O
  O59      1.0000 0.72426  0.87373  0.95516  Biso   1.000  O
  O60      1.0000 0.72202  0.87341  0.45524  Biso   1.000  O
  O61      1.0000 0.72575  0.37416  0.20578  Biso   1.000  O
  O62      1.0000 0.72544  0.37625  0.70611  Biso   1.000  O
  O63      1.0000 0.72655  0.87542  0.20566  Biso   1.000  O
  O64      1.0000 0.72426  0.87613  0.70543  Biso   1.000  O
