data_image0
_cell_length_a       10.1309
_cell_length_b       10.3558
_cell_length_c       10.5536
_cell_angle_alpha    89.6734
_cell_angle_beta     90.0811
_cell_angle_gamma    90.2117

_symmetry_space_group_name_H-M    "P 1"
_symmetry_int_tables_number       1

loop_
  _symmetry_equiv_pos_as_xyz
  'x, y, z'

loop_
  _atom_site_label
  _atom_site_occupancy
  _atom_site_fract_x
  _atom_site_fract_y
  _atom_site_fract_z
  _atom_site_thermal_displace_type
  _atom_site_B_iso_or_equiv
  _atom_site_type_symbol
  K1       1.0000 0.10861  0.98883  0.15805  Biso   1.000  K
  Zr1      1.0000 0.13957  0.02185  0.67135  Biso   1.000  Zr
  Zr2      1.0000 0.14362  0.51877  0.17214  Biso   1.000  Zr
  Zr3      1.0000 0.14070  0.52230  0.67173  Biso   1.000  Zr
  Zr4      1.0000 0.14192  0.22709  0.42160  Biso   1.000  Zr
  Zr5      1.0000 0.13820  0.22703  0.92452  Biso   1.000  Zr
  Zr6      1.0000 0.14136  0.72937  0.42009  Biso   1.000  Zr
  Zr7      1.0000 0.14942  0.72915  0.91962  Biso   1.000  Zr
  Zr8      1.0000 0.35188  0.26024  0.17125  Biso   1.000  Zr
  Zr9      1.0000 0.35956  0.27070  0.67231  Biso   1.000  Zr
  Zr10     1.0000 0.36736  0.77119  0.17100  Biso   1.000  Zr
  Zr11     1.0000 0.35950  0.77266  0.66870  Biso   1.000  Zr
  Zr12     1.0000 0.36012  0.47691  0.42005  Biso   1.000  Zr
  Zr13     1.0000 0.35993  0.47547  0.92248  Biso   1.000  Zr
  Zr14     1.0000 0.35927  0.98060  0.41664  Biso   1.000  Zr
  Zr15     1.0000 0.36256  0.98143  0.92174  Biso   1.000  Zr
  Zr16     1.0000 0.64021  0.02910  0.07598  Biso   1.000  Zr
  Zr17     1.0000 0.63438  0.02120  0.58281  Biso   1.000  Zr
  Zr18     1.0000 0.63314  0.51408  0.07946  Biso   1.000  Zr
  Zr19     1.0000 0.63921  0.52077  0.57852  Biso   1.000  Zr
  Zr20     1.0000 0.63552  0.23324  0.32994  Biso   1.000  Zr
  Zr21     1.0000 0.64077  0.23090  0.82814  Biso   1.000  Zr
  Zr22     1.0000 0.63989  0.72444  0.33130  Biso   1.000  Zr
  Zr23     1.0000 0.63382  0.72950  0.82538  Biso   1.000  Zr
  Zr24     1.0000 0.86389  0.27360  0.07815  Biso   1.000  Zr
  Zr25     1.0000 0.86353  0.27380  0.58006  Biso   1.000  Zr
  Zr26     1.0000 0.86301  0.74598  0.05890  Biso   1.000  Zr
  Zr27     1.0000 0.86258  0.77086  0.57932  Biso   1.000  Zr
  Zr28     1.0000 0.86323  0.47999  0.32830  Biso   1.000  Zr
  Zr29     1.0000 0.86248  0.47753  0.82516  Biso   1.000  Zr
  Zr30     1.0000 0.85996  0.99474  0.35249  Biso   1.000  Zr
  Zr31     1.0000 0.86059  0.97864  0.82923  Biso   1.000  Zr
  O1       1.0000 0.03252  0.18760  0.08380  Biso   1.000  O
  O2       1.0000 0.03539  0.17375  0.59415  Biso   1.000  O
  O3       1.0000 0.04188  0.67566  0.08891  Biso   1.000  O
  O4       1.0000 0.03434  0.66844  0.58627  Biso   1.000  O
  O5       1.0000 0.02579  0.08335  0.36197  Biso   1.000  O
  O6       1.0000 0.03343  0.08050  0.83775  Biso   1.000  O
  O7       1.0000 0.03554  0.58387  0.33517  Biso   1.000  O
  O8       1.0000 0.03304  0.58491  0.83564  Biso   1.000  O
  O9       1.0000 0.46686  0.40749  0.08119  Biso   1.000  O
  O10      1.0000 0.46991  0.41189  0.58028  Biso   1.000  O
  O11      1.0000 0.48116  0.91169  0.07877  Biso   1.000  O
  O12      1.0000 0.46809  0.91089  0.57753  Biso   1.000  O
  O13      1.0000 0.46761  0.33993  0.32974  Biso   1.000  O
  O14      1.0000 0.47000  0.33758  0.82974  Biso   1.000  O
  O15      1.0000 0.48590  0.84733  0.32317  Biso   1.000  O
  O16      1.0000 0.47028  0.84056  0.82539  Biso   1.000  O
  O17      1.0000 0.28145  0.12924  0.30521  Biso   1.000  O
  O18      1.0000 0.27454  0.12365  0.79237  Biso   1.000  O
  O19      1.0000 0.28008  0.61857  0.29389  Biso   1.000  O
  O20      1.0000 0.27736  0.62436  0.79432  Biso   1.000  O
  O21      1.0000 0.28756  0.13181  0.03383  Biso   1.000  O
  O22      1.0000 0.27588  0.12482  0.54705  Biso   1.000  O
  O23      1.0000 0.27692  0.61766  0.04577  Biso   1.000  O
  O24      1.0000 0.27567  0.62595  0.54432  Biso   1.000  O
  O25      1.0000 0.22172  0.37288  0.29500  Biso   1.000  O
  O26      1.0000 0.22510  0.37462  0.79507  Biso   1.000  O
  O27      1.0000 0.24157  0.85881  0.30240  Biso   1.000  O
  O28      1.0000 0.22539  0.87420  0.79124  Biso   1.000  O
  O29      1.0000 0.22248  0.37580  0.04594  Biso   1.000  O
  O30      1.0000 0.22554  0.37683  0.54545  Biso   1.000  O
  O31      1.0000 0.25092  0.85778  0.03174  Biso   1.000  O
  O32      1.0000 0.22332  0.87767  0.54508  Biso   1.000  O
  O33      1.0000 0.53188  0.16440  0.16776  Biso   1.000  O
  O34      1.0000 0.53041  0.16327  0.66930  Biso   1.000  O
  O35      1.0000 0.53486  0.65931  0.17154  Biso   1.000  O
  O36      1.0000 0.52952  0.66196  0.66696  Biso   1.000  O
  O37      1.0000 0.53290  0.08794  0.41931  Biso   1.000  O
  O38      1.0000 0.53646  0.08801  0.91635  Biso   1.000  O
  O39      1.0000 0.53135  0.58949  0.41986  Biso   1.000  O
  O40      1.0000 0.52797  0.58789  0.92043  Biso   1.000  O
  O41      1.0000 0.96379  0.42685  0.16153  Biso   1.000  O
  O42      1.0000 0.96733  0.42182  0.66210  Biso   1.000  O
  O43      1.0000 0.87218  0.91089  0.16969  Biso   1.000  O
  O44      1.0000 0.96537  0.91795  0.66512  Biso   1.000  O
  O45      1.0000 0.96705  0.33467  0.41539  Biso   1.000  O
  O46      1.0000 0.96490  0.33470  0.90809  Biso   1.000  O
  O47      1.0000 0.96730  0.83403  0.41254  Biso   1.000  O
  O48      1.0000 0.97543  0.83674  0.91966  Biso   1.000  O
  O49      1.0000 0.77851  0.12485  0.95625  Biso   1.000  O
  O50      1.0000 0.76934  0.13057  0.46468  Biso   1.000  O
  O51      1.0000 0.77054  0.61646  0.94928  Biso   1.000  O
  O52      1.0000 0.77681  0.62457  0.45508  Biso   1.000  O
  O53      1.0000 0.77400  0.13066  0.21343  Biso   1.000  O
  O54      1.0000 0.77539  0.12618  0.70838  Biso   1.000  O
  O55      1.0000 0.77599  0.62763  0.20383  Biso   1.000  O
  O56      1.0000 0.77361  0.62702  0.70345  Biso   1.000  O
  O57      1.0000 0.72286  0.37440  0.95298  Biso   1.000  O
  O58      1.0000 0.72516  0.37765  0.45451  Biso   1.000  O
  O59      1.0000 0.72740  0.86974  0.95215  Biso   1.000  O
  O60      1.0000 0.72549  0.87561  0.45937  Biso   1.000  O
  O61      1.0000 0.72409  0.37837  0.20587  Biso   1.000  O
  O62      1.0000 0.72617  0.37562  0.70282  Biso   1.000  O
  O63      1.0000 0.73405  0.88326  0.20270  Biso   1.000  O
  O64      1.0000 0.72489  0.87542  0.70505  Biso   1.000  O
