data_image0
_cell_length_a       10.1611
_cell_length_b       10.2972
_cell_length_c       5.02896
_cell_angle_alpha    90
_cell_angle_beta     89.9991
_cell_angle_gamma    90.0011

_symmetry_space_group_name_H-M    "P 1"
_symmetry_int_tables_number       1

loop_
  _symmetry_equiv_pos_as_xyz
  'x, y, z'

loop_
  _atom_site_label
  _atom_site_occupancy
  _atom_site_fract_x
  _atom_site_fract_y
  _atom_site_fract_z
  _atom_site_thermal_displace_type
  _atom_site_B_iso_or_equiv
  _atom_site_type_symbol
  K1       1.0000 0.12570  0.00020  0.25182  Biso   1.000  K
  Zr1      1.0000 0.12570  0.50020  0.25182  Biso   1.000  Zr
  Zr2      1.0000 0.62570  0.00021  0.25183  Biso   1.000  Zr
  Zr3      1.0000 0.62570  0.50021  0.25183  Biso   1.000  Zr
  Zr4      1.0000 0.12571  0.25493  0.75180  Biso   1.000  Zr
  Zr5      1.0000 0.12570  0.74548  0.75182  Biso   1.000  Zr
  Zr6      1.0000 0.62570  0.24851  0.75180  Biso   1.000  Zr
  Zr7      1.0000 0.62570  0.75191  0.75183  Biso   1.000  Zr
  Zr8      1.0000 0.37708  0.25401  0.24927  Biso   1.000  Zr
  Zr9      1.0000 0.37707  0.74641  0.25437  Biso   1.000  Zr
  Zr10     1.0000 0.87433  0.25401  0.25434  Biso   1.000  Zr
  Zr11     1.0000 0.87433  0.74640  0.24927  Biso   1.000  Zr
  Zr12     1.0000 0.37606  0.00020  0.75182  Biso   1.000  Zr
  Zr13     1.0000 0.37595  0.50021  0.75183  Biso   1.000  Zr
  Zr14     1.0000 0.87534  0.00020  0.75182  Biso   1.000  Zr
  Zr15     1.0000 0.87544  0.50020  0.75183  Biso   1.000  Zr
  O1       1.0000 0.99268  0.14981  0.99332  Biso   1.000  O
  O2       1.0000 0.00605  0.63701  0.01883  Biso   1.000  O
  O3       1.0000 0.50953  0.14728  0.01938  Biso   1.000  O
  O4       1.0000 0.50610  0.64476  0.00491  Biso   1.000  O
  O5       1.0000 0.98580  0.12764  0.52962  Biso   1.000  O
  O6       1.0000 0.99840  0.60699  0.51369  Biso   1.000  O
  O7       1.0000 0.50118  0.10373  0.51295  Biso   1.000  O
  O8       1.0000 0.49670  0.60433  0.50201  Biso   1.000  O
  O9       1.0000 0.00606  0.36338  0.48479  Biso   1.000  O
  O10      1.0000 0.99267  0.85059  0.51032  Biso   1.000  O
  O11      1.0000 0.50611  0.35566  0.49873  Biso   1.000  O
  O12      1.0000 0.50952  0.85314  0.48427  Biso   1.000  O
  O13      1.0000 0.99841  0.39341  0.98993  Biso   1.000  O
  O14      1.0000 0.98580  0.87277  0.97402  Biso   1.000  O
  O15      1.0000 0.49670  0.39609  0.00162  Biso   1.000  O
  O16      1.0000 0.50117  0.89670  0.99070  Biso   1.000  O
  O17      1.0000 0.25873  0.14982  0.51033  Biso   1.000  O
  O18      1.0000 0.24534  0.63702  0.48479  Biso   1.000  O
  O19      1.0000 0.74188  0.14728  0.48426  Biso   1.000  O
  O20      1.0000 0.74528  0.64475  0.49873  Biso   1.000  O
  O21      1.0000 0.26561  0.12765  0.97403  Biso   1.000  O
  O22      1.0000 0.25299  0.60700  0.98993  Biso   1.000  O
  O23      1.0000 0.75023  0.10373  0.99070  Biso   1.000  O
  O24      1.0000 0.75470  0.60433  0.00162  Biso   1.000  O
  O25      1.0000 0.24534  0.36340  0.01884  Biso   1.000  O
  O26      1.0000 0.25873  0.85060  0.99332  Biso   1.000  O
  O27      1.0000 0.74529  0.35566  0.00489  Biso   1.000  O
  O28      1.0000 0.74187  0.85314  0.01940  Biso   1.000  O
  O29      1.0000 0.25299  0.39342  0.51370  Biso   1.000  O
  O30      1.0000 0.26560  0.87277  0.52962  Biso   1.000  O
  O31      1.0000 0.75470  0.39609  0.50200  Biso   1.000  O
  O32      1.0000 0.75023  0.89669  0.51296  Biso   1.000  O
