data_image0
_cell_length_a       5.21255
_cell_length_b       10.3804
_cell_length_c       10.1644
_cell_angle_alpha    91.1485
_cell_angle_beta     90.2468
_cell_angle_gamma    93.2867

_symmetry_space_group_name_H-M    "P 1"
_symmetry_int_tables_number       1

loop_
  _symmetry_equiv_pos_as_xyz
  'x, y, z'

loop_
  _atom_site_label
  _atom_site_occupancy
  _atom_site_fract_x
  _atom_site_fract_y
  _atom_site_fract_z
  _atom_site_thermal_displace_type
  _atom_site_B_iso_or_equiv
  _atom_site_type_symbol
  Zr1      1.0000 0.20410  0.97630  0.11142  Biso   1.000  Zr
  Zr2      1.0000 0.20393  0.24075  0.41504  Biso   1.000  Zr
  Zr3      1.0000 0.80751  0.25747  0.13054  Biso   1.000  Zr
  Zr4      1.0000 0.72160  0.01837  0.37294  Biso   1.000  Zr
  O1       1.0000 0.02233  0.13052  0.00056  Biso   1.000  O
  O2       1.0000 0.02940  0.11753  0.26000  Biso   1.000  O
  O3       1.0000 0.05240  0.38707  0.26959  Biso   1.000  O
  O4       1.0000 0.05511  0.39392  0.00257  Biso   1.000  O
  O5       1.0000 0.58725  0.19154  0.30018  Biso   1.000  O
  O6       1.0000 0.54471  0.08601  0.04541  Biso   1.000  O
  O7       1.0000 0.58584  0.32297  0.96370  Biso   1.000  O
  O8       1.0000 0.57558  0.44301  0.21453  Biso   1.000  O
  Zr5      1.0000 0.26896  0.97680  0.64573  Biso   1.000  Zr
  Zr6      1.0000 0.23229  0.24478  0.84757  Biso   1.000  Zr
  Zr7      1.0000 0.69225  0.25693  0.61982  Biso   1.000  Zr
  Zr8      1.0000 0.73406  0.00835  0.89169  Biso   1.000  Zr
  O9       1.0000 0.92019  0.14205  0.51309  Biso   1.000  O
  O10      1.0000 0.02605  0.07253  0.76402  Biso   1.000  O
  O11      1.0000 0.93201  0.32386  0.76351  Biso   1.000  O
  O12      1.0000 0.98860  0.38947  0.51788  Biso   1.000  O
  O13      1.0000 0.51095  0.12953  0.76241  Biso   1.000  O
  O14      1.0000 0.42758  0.11327  0.51526  Biso   1.000  O
  O15      1.0000 0.49087  0.37214  0.48908  Biso   1.000  O
  O16      1.0000 0.45770  0.38694  0.73765  Biso   1.000  O
  Zr9      1.0000 0.23142  0.54042  0.13915  Biso   1.000  Zr
  Zr10     1.0000 0.19957  0.78212  0.36432  Biso   1.000  Zr
  Zr11     1.0000 0.73720  0.74173  0.10406  Biso   1.000  Zr
  Zr12     1.0000 0.77793  0.49653  0.38063  Biso   1.000  Zr
  O17      1.0000 0.00033  0.63621  0.99853  Biso   1.000  O
  O18      1.0000 0.95767  0.63395  0.25216  Biso   1.000  O
  O19      1.0000 0.91888  0.87289  0.24339  Biso   1.000  O
  O20      1.0000 0.94617  0.87598  0.98455  Biso   1.000  O
  O21      1.0000 0.43893  0.69164  0.23136  Biso   1.000  O
  O22      1.0000 0.50238  0.59470  0.98883  Biso   1.000  O
  O23      1.0000 0.44749  0.84517  0.00691  Biso   1.000  O
  O24      1.0000 0.40563  0.93751  0.27417  Biso   1.000  O
  Zr13     1.0000 0.28577  0.51472  0.60790  Biso   1.000  Zr
  Zr14     1.0000 0.27590  0.72299  0.85785  Biso   1.000  Zr
  Zr15     1.0000 0.74900  0.75805  0.60483  Biso   1.000  Zr
  Zr16     1.0000 0.77058  0.47930  0.87846  Biso   1.000  Zr
  O25      1.0000 0.03298  0.64469  0.50234  Biso   1.000  O
  O26      1.0000 0.05957  0.56691  0.76189  Biso   1.000  O
  O27      1.0000 0.05953  0.81565  0.72622  Biso   1.000  O
  O28      1.0000 0.99001  0.90166  0.49491  Biso   1.000  O
  O29      1.0000 0.54324  0.63588  0.73699  Biso   1.000  O
  O30      1.0000 0.53926  0.61611  0.48604  Biso   1.000  O
  O31      1.0000 0.49312  0.86360  0.50173  Biso   1.000  O
  O32      1.0000 0.54184  0.88023  0.75393  Biso   1.000  O
  La1      1.0000 0.31406  0.26029  0.13520  Biso   1.000  La
