data_image0
_cell_length_a       10.1605
_cell_length_b       10.3336
_cell_length_c       10.537
_cell_angle_alpha    90.0359
_cell_angle_beta     90.1097
_cell_angle_gamma    90.0801

_symmetry_space_group_name_H-M    "P 1"
_symmetry_int_tables_number       1

loop_
  _symmetry_equiv_pos_as_xyz
  'x, y, z'

loop_
  _atom_site_label
  _atom_site_occupancy
  _atom_site_fract_x
  _atom_site_fract_y
  _atom_site_fract_z
  _atom_site_thermal_displace_type
  _atom_site_B_iso_or_equiv
  _atom_site_type_symbol
  La1      1.0000 0.13507  0.01284  0.16401  Biso   1.000  La
  Zr1      1.0000 0.13948  0.02078  0.67204  Biso   1.000  Zr
  Zr2      1.0000 0.13891  0.52038  0.17111  Biso   1.000  Zr
  Zr3      1.0000 0.13890  0.52105  0.67087  Biso   1.000  Zr
  Zr4      1.0000 0.13863  0.22728  0.42268  Biso   1.000  Zr
  Zr5      1.0000 0.13899  0.23343  0.91863  Biso   1.000  Zr
  Zr6      1.0000 0.13983  0.72792  0.42208  Biso   1.000  Zr
  Zr7      1.0000 0.14038  0.72776  0.92073  Biso   1.000  Zr
  Zr8      1.0000 0.35979  0.26957  0.17102  Biso   1.000  Zr
  Zr9      1.0000 0.36106  0.27042  0.67103  Biso   1.000  Zr
  Zr10     1.0000 0.36609  0.76690  0.17108  Biso   1.000  Zr
  Zr11     1.0000 0.36052  0.77093  0.67102  Biso   1.000  Zr
  Zr12     1.0000 0.36028  0.47754  0.42056  Biso   1.000  Zr
  Zr13     1.0000 0.36117  0.47858  0.92184  Biso   1.000  Zr
  Zr14     1.0000 0.36199  0.97863  0.42199  Biso   1.000  Zr
  Zr15     1.0000 0.36481  0.97998  0.91866  Biso   1.000  Zr
  Zr16     1.0000 0.63982  0.02064  0.08048  Biso   1.000  Zr
  Zr17     1.0000 0.63862  0.02125  0.58048  Biso   1.000  Zr
  Zr18     1.0000 0.63837  0.51876  0.07768  Biso   1.000  Zr
  Zr19     1.0000 0.63827  0.52072  0.57696  Biso   1.000  Zr
  Zr20     1.0000 0.63791  0.22980  0.32862  Biso   1.000  Zr
  Zr21     1.0000 0.63939  0.22902  0.82834  Biso   1.000  Zr
  Zr22     1.0000 0.63965  0.72869  0.32919  Biso   1.000  Zr
  Zr23     1.0000 0.63841  0.72871  0.82706  Biso   1.000  Zr
  Zr24     1.0000 0.85966  0.27331  0.07616  Biso   1.000  Zr
  Zr25     1.0000 0.86125  0.27153  0.57840  Biso   1.000  Zr
  Zr26     1.0000 0.85695  0.76753  0.07828  Biso   1.000  Zr
  Zr27     1.0000 0.86230  0.77127  0.57930  Biso   1.000  Zr
  Zr28     1.0000 0.86134  0.47930  0.32829  Biso   1.000  Zr
  Zr29     1.0000 0.86004  0.48022  0.82615  Biso   1.000  Zr
  Zr30     1.0000 0.85520  0.97938  0.33339  Biso   1.000  Zr
  Zr31     1.0000 0.86187  0.97926  0.83041  Biso   1.000  Zr
  O1       1.0000 0.03161  0.18485  0.07868  Biso   1.000  O
  O2       1.0000 0.03334  0.16912  0.58990  Biso   1.000  O
  O3       1.0000 0.03329  0.66668  0.08321  Biso   1.000  O
  O4       1.0000 0.03269  0.66532  0.58458  Biso   1.000  O
  O5       1.0000 0.02186  0.08818  0.34785  Biso   1.000  O
  O6       1.0000 0.03428  0.08336  0.83710  Biso   1.000  O
  O7       1.0000 0.03216  0.58601  0.33366  Biso   1.000  O
  O8       1.0000 0.03143  0.58563  0.83157  Biso   1.000  O
  O9       1.0000 0.46848  0.41195  0.08123  Biso   1.000  O
  O10      1.0000 0.46883  0.41249  0.58134  Biso   1.000  O
  O11      1.0000 0.47012  0.91575  0.08346  Biso   1.000  O
  O12      1.0000 0.46883  0.91317  0.58285  Biso   1.000  O
  O13      1.0000 0.46913  0.33816  0.33129  Biso   1.000  O
  O14      1.0000 0.46861  0.33585  0.83149  Biso   1.000  O
  O15      1.0000 0.47264  0.83647  0.33265  Biso   1.000  O
  O16      1.0000 0.47029  0.83668  0.82985  Biso   1.000  O
  O17      1.0000 0.28159  0.12850  0.30332  Biso   1.000  O
  O18      1.0000 0.27483  0.12477  0.79225  Biso   1.000  O
  O19      1.0000 0.27618  0.61993  0.29472  Biso   1.000  O
  O20      1.0000 0.27523  0.62460  0.79507  Biso   1.000  O
  O21      1.0000 0.28590  0.13474  0.03390  Biso   1.000  O
  O22      1.0000 0.27448  0.12441  0.54691  Biso   1.000  O
  O23      1.0000 0.27465  0.62056  0.04603  Biso   1.000  O
  O24      1.0000 0.27482  0.62504  0.54513  Biso   1.000  O
  O25      1.0000 0.22309  0.37293  0.29467  Biso   1.000  O
  O26      1.0000 0.22591  0.37587  0.79407  Biso   1.000  O
  O27      1.0000 0.23493  0.86282  0.30143  Biso   1.000  O
  O28      1.0000 0.22584  0.87447  0.79264  Biso   1.000  O
  O29      1.0000 0.22395  0.37763  0.04470  Biso   1.000  O
  O30      1.0000 0.22539  0.37564  0.54541  Biso   1.000  O
  O31      1.0000 0.24296  0.86167  0.03406  Biso   1.000  O
  O32      1.0000 0.22512  0.87574  0.54629  Biso   1.000  O
  O33      1.0000 0.53217  0.16440  0.16753  Biso   1.000  O
  O34      1.0000 0.53171  0.16373  0.66745  Biso   1.000  O
  O35      1.0000 0.53261  0.65998  0.16861  Biso   1.000  O
  O36      1.0000 0.53083  0.66234  0.66761  Biso   1.000  O
  O37      1.0000 0.53271  0.08556  0.41821  Biso   1.000  O
  O38      1.0000 0.53647  0.08414  0.91533  Biso   1.000  O
  O39      1.0000 0.53066  0.58617  0.41813  Biso   1.000  O
  O40      1.0000 0.53016  0.58744  0.91845  Biso   1.000  O
  O41      1.0000 0.96425  0.42031  0.16479  Biso   1.000  O
  O42      1.0000 0.96689  0.41782  0.66379  Biso   1.000  O
  O43      1.0000 0.94374  0.90873  0.17365  Biso   1.000  O
  O44      1.0000 0.96757  0.91505  0.66867  Biso   1.000  O
  O45      1.0000 0.96784  0.33720  0.41750  Biso   1.000  O
  O46      1.0000 0.96512  0.33800  0.91011  Biso   1.000  O
  O47      1.0000 0.96856  0.83570  0.41904  Biso   1.000  O
  O48      1.0000 0.97113  0.83844  0.92100  Biso   1.000  O
  O49      1.0000 0.77665  0.12457  0.95560  Biso   1.000  O
  O50      1.0000 0.77136  0.12642  0.45824  Biso   1.000  O
  O51      1.0000 0.77300  0.62253  0.95250  Biso   1.000  O
  O52      1.0000 0.77532  0.62459  0.45446  Biso   1.000  O
  O53      1.0000 0.77451  0.12676  0.20682  Biso   1.000  O
  O54      1.0000 0.77548  0.12580  0.70635  Biso   1.000  O
  O55      1.0000 0.77448  0.62532  0.20410  Biso   1.000  O
  O56      1.0000 0.77387  0.62643  0.70303  Biso   1.000  O
  O57      1.0000 0.72304  0.37490  0.95275  Biso   1.000  O
  O58      1.0000 0.72492  0.37547  0.45369  Biso   1.000  O
  O59      1.0000 0.72585  0.87341  0.95478  Biso   1.000  O
  O60      1.0000 0.72498  0.87400  0.45779  Biso   1.000  O
  O61      1.0000 0.72383  0.37631  0.20451  Biso   1.000  O
  O62      1.0000 0.72501  0.37544  0.70310  Biso   1.000  O
  O63      1.0000 0.71197  0.87497  0.20672  Biso   1.000  O
  O64      1.0000 0.72587  0.87565  0.70585  Biso   1.000  O
