data_image0
_cell_length_a       10.0695
_cell_length_b       5.04261
_cell_length_c       10.0695
_cell_angle_alpha    89.998
_cell_angle_beta     89.9978
_cell_angle_gamma    89.9979

_symmetry_space_group_name_H-M    "P 1"
_symmetry_int_tables_number       1

loop_
  _symmetry_equiv_pos_as_xyz
  'x, y, z'

loop_
  _atom_site_label
  _atom_site_occupancy
  _atom_site_fract_x
  _atom_site_fract_y
  _atom_site_fract_z
  _atom_site_thermal_displace_type
  _atom_site_B_iso_or_equiv
  _atom_site_type_symbol
  Li1      1.0000 0.12488  0.00085  0.12489  Biso   1.000  Li
  Zr1      1.0000 0.12489  0.00083  0.62490  Biso   1.000  Zr
  Zr2      1.0000 0.62489  0.00082  0.12490  Biso   1.000  Zr
  Zr3      1.0000 0.62488  0.00082  0.62489  Biso   1.000  Zr
  Zr4      1.0000 0.12489  0.50085  0.36993  Biso   1.000  Zr
  Zr5      1.0000 0.12489  0.50082  0.87987  Biso   1.000  Zr
  Zr6      1.0000 0.62489  0.50082  0.37510  Biso   1.000  Zr
  Zr7      1.0000 0.62489  0.50083  0.87469  Biso   1.000  Zr
  Zr8      1.0000 0.36992  0.50084  0.12490  Biso   1.000  Zr
  Zr9      1.0000 0.37509  0.50081  0.62490  Biso   1.000  Zr
  Zr10     1.0000 0.87986  0.50082  0.12490  Biso   1.000  Zr
  Zr11     1.0000 0.87468  0.50083  0.62489  Biso   1.000  Zr
  Zr12     1.0000 0.37240  0.99811  0.37241  Biso   1.000  Zr
  Zr13     1.0000 0.37239  0.00356  0.87740  Biso   1.000  Zr
  Zr14     1.0000 0.87739  0.00356  0.37239  Biso   1.000  Zr
  Zr15     1.0000 0.87738  0.99810  0.87739  Biso   1.000  Zr
  O1       1.0000 0.99562  0.27192  0.99563  Biso   1.000  O
  O2       1.0000 0.00096  0.27569  0.50149  Biso   1.000  O
  O3       1.0000 0.50148  0.27569  0.00096  Biso   1.000  O
  O4       1.0000 0.50097  0.27898  0.50098  Biso   1.000  O
  O5       1.0000 0.99650  0.24230  0.25330  Biso   1.000  O
  O6       1.0000 0.99897  0.22539  0.74931  Biso   1.000  O
  O7       1.0000 0.50049  0.22539  0.25082  Biso   1.000  O
  O8       1.0000 0.49931  0.22300  0.75048  Biso   1.000  O
  O9       1.0000 0.99563  0.72970  0.25416  Biso   1.000  O
  O10      1.0000 0.00095  0.72597  0.74830  Biso   1.000  O
  O11      1.0000 0.50149  0.72596  0.24883  Biso   1.000  O
  O12      1.0000 0.50097  0.72268  0.74882  Biso   1.000  O
  O13      1.0000 0.99648  0.75934  0.99649  Biso   1.000  O
  O14      1.0000 0.99897  0.77628  0.50049  Biso   1.000  O
  O15      1.0000 0.50048  0.77627  0.99898  Biso   1.000  O
  O16      1.0000 0.49931  0.77868  0.49932  Biso   1.000  O
  O17      1.0000 0.25417  0.27201  0.25418  Biso   1.000  O
  O18      1.0000 0.24882  0.27567  0.74832  Biso   1.000  O
  O19      1.0000 0.74830  0.27567  0.24883  Biso   1.000  O
  O20      1.0000 0.74881  0.27896  0.74882  Biso   1.000  O
  O21      1.0000 0.25329  0.24230  0.99651  Biso   1.000  O
  O22      1.0000 0.25082  0.22538  0.50050  Biso   1.000  O
  O23      1.0000 0.74930  0.22540  0.99898  Biso   1.000  O
  O24      1.0000 0.75047  0.22299  0.49932  Biso   1.000  O
  O25      1.0000 0.25415  0.72970  0.99563  Biso   1.000  O
  O26      1.0000 0.24883  0.72597  0.50150  Biso   1.000  O
  O27      1.0000 0.74829  0.72597  0.00096  Biso   1.000  O
  O28      1.0000 0.74881  0.72268  0.50097  Biso   1.000  O
  O29      1.0000 0.25330  0.75942  0.25330  Biso   1.000  O
  O30      1.0000 0.25081  0.77626  0.74932  Biso   1.000  O
  O31      1.0000 0.74931  0.77625  0.25081  Biso   1.000  O
  O32      1.0000 0.75047  0.77864  0.75047  Biso   1.000  O
