data_image0
_cell_length_a       10.068
_cell_length_b       10.1774
_cell_length_c       5.00204
_cell_angle_alpha    90.001
_cell_angle_beta     89.9991
_cell_angle_gamma    90.0003

_symmetry_space_group_name_H-M    "P 1"
_symmetry_int_tables_number       1

loop_
  _symmetry_equiv_pos_as_xyz
  'x, y, z'

loop_
  _atom_site_label
  _atom_site_occupancy
  _atom_site_fract_x
  _atom_site_fract_y
  _atom_site_fract_z
  _atom_site_thermal_displace_type
  _atom_site_B_iso_or_equiv
  _atom_site_type_symbol
  Mg1      1.0000 0.12500  0.00001  0.25052  Biso   1.000  Mg
  Zr1      1.0000 0.12501  0.50002  0.25054  Biso   1.000  Zr
  Zr2      1.0000 0.62501  0.00002  0.25052  Biso   1.000  Zr
  Zr3      1.0000 0.62501  0.50002  0.25052  Biso   1.000  Zr
  Zr4      1.0000 0.12501  0.24710  0.75054  Biso   1.000  Zr
  Zr5      1.0000 0.12501  0.75295  0.75053  Biso   1.000  Zr
  Zr6      1.0000 0.62500  0.24958  0.75053  Biso   1.000  Zr
  Zr7      1.0000 0.62501  0.75045  0.75052  Biso   1.000  Zr
  Zr8      1.0000 0.37331  0.24841  0.24864  Biso   1.000  Zr
  Zr9      1.0000 0.37332  0.75162  0.25243  Biso   1.000  Zr
  Zr10     1.0000 0.87669  0.24841  0.25244  Biso   1.000  Zr
  Zr11     1.0000 0.87669  0.75163  0.24861  Biso   1.000  Zr
  Zr12     1.0000 0.36978  0.00002  0.75054  Biso   1.000  Zr
  Zr13     1.0000 0.37499  0.50002  0.75053  Biso   1.000  Zr
  Zr14     1.0000 0.88023  0.00002  0.75052  Biso   1.000  Zr
  Zr15     1.0000 0.87503  0.50002  0.75053  Biso   1.000  Zr
  O1       1.0000 0.99503  0.14056  0.99051  Biso   1.000  O
  O2       1.0000 0.99949  0.63841  0.99962  Biso   1.000  O
  O3       1.0000 0.49958  0.14214  0.99956  Biso   1.000  O
  O4       1.0000 0.49924  0.64199  0.99842  Biso   1.000  O
  O5       1.0000 0.00041  0.11354  0.49703  Biso   1.000  O
  O6       1.0000 0.00061  0.61025  0.49983  Biso   1.000  O
  O7       1.0000 0.50127  0.10779  0.50028  Biso   1.000  O
  O8       1.0000 0.50033  0.60786  0.49911  Biso   1.000  O
  O9       1.0000 0.99949  0.36163  0.50144  Biso   1.000  O
  O10      1.0000 0.99505  0.85949  0.51049  Biso   1.000  O
  O11      1.0000 0.49924  0.35805  0.50263  Biso   1.000  O
  O12      1.0000 0.49958  0.85790  0.50152  Biso   1.000  O
  O13      1.0000 0.00061  0.38979  0.00123  Biso   1.000  O
  O14      1.0000 0.00041  0.88650  0.00397  Biso   1.000  O
  O15      1.0000 0.50032  0.39218  0.00194  Biso   1.000  O
  O16      1.0000 0.50127  0.89225  0.00079  Biso   1.000  O
  O17      1.0000 0.25497  0.14055  0.51052  Biso   1.000  O
  O18      1.0000 0.25054  0.63841  0.50144  Biso   1.000  O
  O19      1.0000 0.75043  0.14215  0.50151  Biso   1.000  O
  O20      1.0000 0.75078  0.64200  0.50262  Biso   1.000  O
  O21      1.0000 0.24959  0.11355  0.00401  Biso   1.000  O
  O22      1.0000 0.24941  0.61025  0.00123  Biso   1.000  O
  O23      1.0000 0.74874  0.10779  0.00079  Biso   1.000  O
  O24      1.0000 0.74969  0.60786  0.00194  Biso   1.000  O
  O25      1.0000 0.25053  0.36163  0.99961  Biso   1.000  O
  O26      1.0000 0.25497  0.85949  0.99056  Biso   1.000  O
  O27      1.0000 0.75078  0.35805  0.99842  Biso   1.000  O
  O28      1.0000 0.75043  0.85790  0.99953  Biso   1.000  O
  O29      1.0000 0.24941  0.38979  0.49981  Biso   1.000  O
  O30      1.0000 0.24961  0.88650  0.49707  Biso   1.000  O
  O31      1.0000 0.74970  0.39219  0.49909  Biso   1.000  O
  O32      1.0000 0.74874  0.89226  0.50025  Biso   1.000  O
