data_image0
_cell_length_a       10.1316
_cell_length_b       5.19499
_cell_length_c       10.5383
_cell_angle_alpha    89.6496
_cell_angle_beta     91.9326
_cell_angle_gamma    90.5625

_symmetry_space_group_name_H-M    "P 1"
_symmetry_int_tables_number       1

loop_
  _symmetry_equiv_pos_as_xyz
  'x, y, z'

loop_
  _atom_site_label
  _atom_site_occupancy
  _atom_site_fract_x
  _atom_site_fract_y
  _atom_site_fract_z
  _atom_site_thermal_displace_type
  _atom_site_B_iso_or_equiv
  _atom_site_type_symbol
  Zr1      1.0000 0.13137  0.04163  0.17325  Biso   1.000  Zr
  Zr2      1.0000 0.13596  0.45232  0.42686  Biso   1.000  Zr
  Zr3      1.0000 0.34489  0.54555  0.18697  Biso   1.000  Zr
  Zr4      1.0000 0.35945  0.95560  0.42966  Biso   1.000  Zr
  Zr5      1.0000 0.65037  0.07991  0.07076  Biso   1.000  Zr
  Zr6      1.0000 0.63585  0.46065  0.33124  Biso   1.000  Zr
  Zr7      1.0000 0.85669  0.53486  0.07603  Biso   1.000  Zr
  Zr8      1.0000 0.85762  0.95376  0.32578  Biso   1.000  Zr
  O1       1.0000 0.03463  0.33433  0.08674  Biso   1.000  O
  O2       1.0000 0.03070  0.16082  0.33728  Biso   1.000  O
  O3       1.0000 0.46368  0.85102  0.09473  Biso   1.000  O
  O4       1.0000 0.46233  0.66392  0.34385  Biso   1.000  O
  O5       1.0000 0.26951  0.24954  0.30147  Biso   1.000  O
  O6       1.0000 0.27462  0.25220  0.04949  Biso   1.000  O
  O7       1.0000 0.21794  0.75128  0.30435  Biso   1.000  O
  O8       1.0000 0.22098  0.75391  0.05287  Biso   1.000  O
  O9       1.0000 0.52153  0.34831  0.16746  Biso   1.000  O
  O10      1.0000 0.53074  0.16425  0.41602  Biso   1.000  O
  O11      1.0000 0.95942  0.83569  0.16518  Biso   1.000  O
  O12      1.0000 0.96631  0.66202  0.41572  Biso   1.000  O
  O13      1.0000 0.77390  0.24763  0.45260  Biso   1.000  O
  O14      1.0000 0.77876  0.25752  0.20971  Biso   1.000  O
  O15      1.0000 0.72455  0.74848  0.45268  Biso   1.000  O
  O16      1.0000 0.71564  0.74782  0.19972  Biso   1.000  O
  Zr9      1.0000 0.14428  0.03708  0.67442  Biso   1.000  Zr
  Zr10     1.0000 0.13952  0.45716  0.92422  Biso   1.000  Zr
  Zr11     1.0000 0.36829  0.53727  0.68066  Biso   1.000  Zr
  Zr12     1.0000 0.36056  0.96602  0.92844  Biso   1.000  Zr
  Zr13     1.0000 0.64252  0.03691  0.57584  Biso   1.000  Zr
  Zr14     1.0000 0.65737  0.43960  0.81864  Biso   1.000  Zr
  Zr15     1.0000 0.86620  0.53802  0.57592  Biso   1.000  Zr
  Zr16     1.0000 0.86972  0.94766  0.82605  Biso   1.000  Zr
  O17      1.0000 0.03574  0.32597  0.58630  Biso   1.000  O
  O18      1.0000 0.04286  0.15881  0.83524  Biso   1.000  O
  O19      1.0000 0.47083  0.83096  0.59190  Biso   1.000  O
  O20      1.0000 0.47681  0.64909  0.85348  Biso   1.000  O
  O21      1.0000 0.28008  0.25139  0.79938  Biso   1.000  O
  O22      1.0000 0.27822  0.24696  0.55084  Biso   1.000  O
  O23      1.0000 0.23324  0.74842  0.80167  Biso   1.000  O
  O24      1.0000 0.22819  0.74342  0.55292  Biso   1.000  O
  O25      1.0000 0.53727  0.32732  0.66473  Biso   1.000  O
  O26      1.0000 0.53523  0.16262  0.91262  Biso   1.000  O
  O27      1.0000 0.97455  0.82383  0.66472  Biso   1.000  O
  O28      1.0000 0.97036  0.66152  0.91567  Biso   1.000  O
  O29      1.0000 0.80038  0.23439  0.94226  Biso   1.000  O
  O30      1.0000 0.78444  0.23855  0.69689  Biso   1.000  O
  O31      1.0000 0.72683  0.75970  0.94956  Biso   1.000  O
  O32      1.0000 0.73148  0.74061  0.69975  Biso   1.000  O
  Mg1      1.0000 0.56632  0.58410  0.03271  Biso   1.000  Mg
