data_image0
_cell_length_a       10.1174
_cell_length_b       5.1512
_cell_length_c       10.4208
_cell_angle_alpha    89.8428
_cell_angle_beta     80.3791
_cell_angle_gamma    89.9767

_symmetry_space_group_name_H-M    "P 1"
_symmetry_int_tables_number       1

loop_
  _symmetry_equiv_pos_as_xyz
  'x, y, z'

loop_
  _atom_site_label
  _atom_site_occupancy
  _atom_site_fract_x
  _atom_site_fract_y
  _atom_site_fract_z
  _atom_site_thermal_displace_type
  _atom_site_B_iso_or_equiv
  _atom_site_type_symbol
  Mn1      1.0000 0.13615  0.04799  0.15077  Biso   1.000  Mn
  Zr1      1.0000 0.13926  0.04269  0.64524  Biso   1.000  Zr
  Zr2      1.0000 0.63901  0.04586  0.14473  Biso   1.000  Zr
  Zr3      1.0000 0.63759  0.04095  0.64631  Biso   1.000  Zr
  Zr4      1.0000 0.13946  0.46070  0.39101  Biso   1.000  Zr
  Zr5      1.0000 0.13977  0.45370  0.89953  Biso   1.000  Zr
  Zr6      1.0000 0.63976  0.46038  0.39450  Biso   1.000  Zr
  Zr7      1.0000 0.63676  0.45716  0.89780  Biso   1.000  Zr
  Zr8      1.0000 0.35456  0.54769  0.10649  Biso   1.000  Zr
  Zr9      1.0000 0.36127  0.54433  0.60494  Biso   1.000  Zr
  Zr10     1.0000 0.87029  0.54282  0.10575  Biso   1.000  Zr
  Zr11     1.0000 0.85991  0.54156  0.60433  Biso   1.000  Zr
  Zr12     1.0000 0.35919  0.96016  0.35183  Biso   1.000  Zr
  Zr13     1.0000 0.35666  0.95741  0.85891  Biso   1.000  Zr
  Zr14     1.0000 0.86481  0.96322  0.35173  Biso   1.000  Zr
  Zr15     1.0000 0.86066  0.95711  0.85582  Biso   1.000  Zr
  O1       1.0000 0.03938  0.31888  0.08547  Biso   1.000  O
  O2       1.0000 0.03297  0.32793  0.57299  Biso   1.000  O
  O3       1.0000 0.53482  0.34609  0.08394  Biso   1.000  O
  O4       1.0000 0.53835  0.34752  0.58316  Biso   1.000  O
  O5       1.0000 0.04224  0.16102  0.31520  Biso   1.000  O
  O6       1.0000 0.03443  0.16502  0.82862  Biso   1.000  O
  O7       1.0000 0.53685  0.15820  0.33238  Biso   1.000  O
  O8       1.0000 0.53591  0.14969  0.83645  Biso   1.000  O
  O9       1.0000 0.46479  0.84037  0.16772  Biso   1.000  O
  O10      1.0000 0.46126  0.84665  0.66807  Biso   1.000  O
  O11      1.0000 0.98312  0.84643  0.16392  Biso   1.000  O
  O12      1.0000 0.96530  0.83305  0.67026  Biso   1.000  O
  O13      1.0000 0.46343  0.65843  0.41656  Biso   1.000  O
  O14      1.0000 0.45462  0.64378  0.91638  Biso   1.000  O
  O15      1.0000 0.96381  0.66056  0.41644  Biso   1.000  O
  O16      1.0000 0.96580  0.65707  0.92169  Biso   1.000  O
  O17      1.0000 0.27087  0.25203  0.23706  Biso   1.000  O
  O18      1.0000 0.27710  0.25781  0.74368  Biso   1.000  O
  O19      1.0000 0.77749  0.26020  0.24054  Biso   1.000  O
  O20      1.0000 0.77520  0.25723  0.74187  Biso   1.000  O
  O21      1.0000 0.27701  0.24521  0.48976  Biso   1.000  O
  O22      1.0000 0.26819  0.23157  0.00199  Biso   1.000  O
  O23      1.0000 0.77775  0.24121  0.48952  Biso   1.000  O
  O24      1.0000 0.77762  0.24509  0.99183  Biso   1.000  O
  O25      1.0000 0.21689  0.77066  0.01460  Biso   1.000  O
  O26      1.0000 0.22291  0.75828  0.50771  Biso   1.000  O
  O27      1.0000 0.72485  0.75810  0.01000  Biso   1.000  O
  O28      1.0000 0.72396  0.75907  0.50898  Biso   1.000  O
  O29      1.0000 0.21949  0.75189  0.25607  Biso   1.000  O
  O30      1.0000 0.22236  0.74035  0.76019  Biso   1.000  O
  O31      1.0000 0.73358  0.74552  0.25711  Biso   1.000  O
  O32      1.0000 0.72253  0.74136  0.76018  Biso   1.000  O
