data_image0
_cell_length_a       10.0694
_cell_length_b       10.2739
_cell_length_c       5.24749
_cell_angle_alpha    89.9687
_cell_angle_beta     89.807
_cell_angle_gamma    89.9459

_symmetry_space_group_name_H-M    "P 1"
_symmetry_int_tables_number       1

loop_
  _symmetry_equiv_pos_as_xyz
  'x, y, z'

loop_
  _atom_site_label
  _atom_site_occupancy
  _atom_site_fract_x
  _atom_site_fract_y
  _atom_site_fract_z
  _atom_site_thermal_displace_type
  _atom_site_B_iso_or_equiv
  _atom_site_type_symbol
  Mo1      1.0000 0.13814  0.02405  0.34894  Biso   1.000  Mo
  Zr1      1.0000 0.13948  0.22704  0.84324  Biso   1.000  Zr
  Zr2      1.0000 0.36004  0.27044  0.34484  Biso   1.000  Zr
  Zr3      1.0000 0.36102  0.47935  0.84352  Biso   1.000  Zr
  Zr4      1.0000 0.63852  0.02159  0.15530  Biso   1.000  Zr
  Zr5      1.0000 0.63868  0.22939  0.65765  Biso   1.000  Zr
  Zr6      1.0000 0.86259  0.27015  0.15770  Biso   1.000  Zr
  Zr7      1.0000 0.86123  0.47883  0.65829  Biso   1.000  Zr
  O1       1.0000 0.03310  0.15932  0.16293  Biso   1.000  O
  O2       1.0000 0.03706  0.08242  0.65066  Biso   1.000  O
  O3       1.0000 0.46664  0.41545  0.16935  Biso   1.000  O
  O4       1.0000 0.46674  0.33446  0.66892  Biso   1.000  O
  O5       1.0000 0.27735  0.12159  0.59475  Biso   1.000  O
  O6       1.0000 0.27226  0.12226  0.10305  Biso   1.000  O
  O7       1.0000 0.22435  0.37442  0.59091  Biso   1.000  O
  O8       1.0000 0.22439  0.37430  0.08986  Biso   1.000  O
  O9       1.0000 0.53286  0.16530  0.33425  Biso   1.000  O
  O10      1.0000 0.53096  0.08638  0.83578  Biso   1.000  O
  O11      1.0000 0.96863  0.41325  0.33479  Biso   1.000  O
  O12      1.0000 0.96812  0.33279  0.83308  Biso   1.000  O
  O13      1.0000 0.77642  0.12354  0.90603  Biso   1.000  O
  O14      1.0000 0.77638  0.12567  0.40806  Biso   1.000  O
  O15      1.0000 0.72470  0.37403  0.91127  Biso   1.000  O
  O16      1.0000 0.72460  0.37584  0.41047  Biso   1.000  O
  Zr8      1.0000 0.13920  0.52118  0.34325  Biso   1.000  Zr
  Zr9      1.0000 0.13874  0.72999  0.84256  Biso   1.000  Zr
  Zr10     1.0000 0.35845  0.77476  0.34284  Biso   1.000  Zr
  Zr11     1.0000 0.35958  0.97844  0.84533  Biso   1.000  Zr
  Zr12     1.0000 0.63832  0.52187  0.15984  Biso   1.000  Zr
  Zr13     1.0000 0.63796  0.72884  0.65749  Biso   1.000  Zr
  Zr14     1.0000 0.86290  0.77226  0.15561  Biso   1.000  Zr
  Zr15     1.0000 0.86090  0.97872  0.65340  Biso   1.000  Zr
  O17      1.0000 0.03167  0.66326  0.16413  Biso   1.000  O
  O18      1.0000 0.03229  0.58516  0.66612  Biso   1.000  O
  O19      1.0000 0.46830  0.91437  0.16560  Biso   1.000  O
  O20      1.0000 0.46574  0.83558  0.66751  Biso   1.000  O
  O21      1.0000 0.27565  0.62544  0.59100  Biso   1.000  O
  O22      1.0000 0.27583  0.62716  0.09091  Biso   1.000  O
  O23      1.0000 0.22069  0.87715  0.58758  Biso   1.000  O
  O24      1.0000 0.21911  0.87841  0.09284  Biso   1.000  O
  O25      1.0000 0.53183  0.66667  0.33326  Biso   1.000  O
  O26      1.0000 0.53307  0.58439  0.83303  Biso   1.000  O
  O27      1.0000 0.97522  0.91709  0.32634  Biso   1.000  O
  O28      1.0000 0.96706  0.83545  0.82951  Biso   1.000  O
  O29      1.0000 0.77600  0.62496  0.91137  Biso   1.000  O
  O30      1.0000 0.77574  0.62594  0.41117  Biso   1.000  O
  O31      1.0000 0.72378  0.87464  0.90717  Biso   1.000  O
  O32      1.0000 0.72770  0.87641  0.40851  Biso   1.000  O
