data_image0
_cell_length_a       10.0651
_cell_length_b       5.13694
_cell_length_c       10.4982
_cell_angle_alpha    89.9838
_cell_angle_beta     89.8847
_cell_angle_gamma    89.8988

_symmetry_space_group_name_H-M    "P 1"
_symmetry_int_tables_number       1

loop_
  _symmetry_equiv_pos_as_xyz
  'x, y, z'

loop_
  _atom_site_label
  _atom_site_occupancy
  _atom_site_fract_x
  _atom_site_fract_y
  _atom_site_fract_z
  _atom_site_thermal_displace_type
  _atom_site_B_iso_or_equiv
  _atom_site_type_symbol
  Mo1      1.0000 0.13780  0.04552  0.17412  Biso   1.000  Mo
  Zr1      1.0000 0.13917  0.46037  0.42023  Biso   1.000  Zr
  Zr2      1.0000 0.35789  0.54929  0.17170  Biso   1.000  Zr
  Zr3      1.0000 0.35982  0.96045  0.42069  Biso   1.000  Zr
  Zr4      1.0000 0.63840  0.04462  0.07812  Biso   1.000  Zr
  Zr5      1.0000 0.63802  0.45758  0.32771  Biso   1.000  Zr
  Zr6      1.0000 0.86470  0.54199  0.07874  Biso   1.000  Zr
  Zr7      1.0000 0.86152  0.95839  0.32761  Biso   1.000  Zr
  O1       1.0000 0.03526  0.32185  0.08650  Biso   1.000  O
  O2       1.0000 0.03682  0.16544  0.32706  Biso   1.000  O
  O3       1.0000 0.46804  0.82875  0.08263  Biso   1.000  O
  O4       1.0000 0.46563  0.67019  0.33361  Biso   1.000  O
  O5       1.0000 0.27543  0.24788  0.29451  Biso   1.000  O
  O6       1.0000 0.27319  0.24751  0.05128  Biso   1.000  O
  O7       1.0000 0.22120  0.75399  0.29480  Biso   1.000  O
  O8       1.0000 0.21940  0.75533  0.04647  Biso   1.000  O
  O9       1.0000 0.53213  0.33369  0.16638  Biso   1.000  O
  O10      1.0000 0.53274  0.16997  0.41617  Biso   1.000  O
  O11      1.0000 0.97920  0.82705  0.16559  Biso   1.000  O
  O12      1.0000 0.96678  0.66881  0.41499  Biso   1.000  O
  O13      1.0000 0.77672  0.24639  0.45363  Biso   1.000  O
  O14      1.0000 0.77639  0.25035  0.20445  Biso   1.000  O
  O15      1.0000 0.72388  0.74762  0.45444  Biso   1.000  O
  O16      1.0000 0.72922  0.75227  0.20473  Biso   1.000  O
  Zr8      1.0000 0.13841  0.04246  0.67180  Biso   1.000  Zr
  Zr9      1.0000 0.13955  0.45484  0.92353  Biso   1.000  Zr
  Zr10     1.0000 0.36109  0.54342  0.67168  Biso   1.000  Zr
  Zr11     1.0000 0.35968  0.95712  0.92307  Biso   1.000  Zr
  Zr12     1.0000 0.63827  0.04205  0.57873  Biso   1.000  Zr
  Zr13     1.0000 0.63873  0.45901  0.82943  Biso   1.000  Zr
  Zr14     1.0000 0.86054  0.54126  0.57820  Biso   1.000  Zr
  Zr15     1.0000 0.86118  0.95677  0.82890  Biso   1.000  Zr
  O17      1.0000 0.03074  0.32330  0.57871  Biso   1.000  O
  O18      1.0000 0.03086  0.17305  0.83138  Biso   1.000  O
  O19      1.0000 0.46656  0.83203  0.58376  Biso   1.000  O
  O20      1.0000 0.46673  0.67083  0.83406  Biso   1.000  O
  O21      1.0000 0.27591  0.24786  0.79695  Biso   1.000  O
  O22      1.0000 0.27577  0.25294  0.54562  Biso   1.000  O
  O23      1.0000 0.22358  0.74779  0.79563  Biso   1.000  O
  O24      1.0000 0.22352  0.75111  0.54457  Biso   1.000  O
  O25      1.0000 0.53264  0.33161  0.66666  Biso   1.000  O
  O26      1.0000 0.53121  0.17191  0.91729  Biso   1.000  O
  O27      1.0000 0.96825  0.82537  0.66710  Biso   1.000  O
  O28      1.0000 0.96791  0.66725  0.91766  Biso   1.000  O
  O29      1.0000 0.77590  0.25012  0.95492  Biso   1.000  O
  O30      1.0000 0.77561  0.25087  0.70462  Biso   1.000  O
  O31      1.0000 0.72413  0.75001  0.95477  Biso   1.000  O
  O32      1.0000 0.72390  0.75173  0.70476  Biso   1.000  O
