data_image0
_cell_length_a       10.0209
_cell_length_b       10.4127
_cell_length_c       10.0536
_cell_angle_alpha    89.9258
_cell_angle_beta     89.9485
_cell_angle_gamma    90.0033

_symmetry_space_group_name_H-M    "P 1"
_symmetry_int_tables_number       1

loop_
  _symmetry_equiv_pos_as_xyz
  'x, y, z'

loop_
  _atom_site_label
  _atom_site_occupancy
  _atom_site_fract_x
  _atom_site_fract_y
  _atom_site_fract_z
  _atom_site_thermal_displace_type
  _atom_site_B_iso_or_equiv
  _atom_site_type_symbol
  Mo1      1.0000 0.13595  0.02025  0.12342  Biso   1.000  Mo
  Zr1      1.0000 0.13295  0.23324  0.37469  Biso   1.000  Zr
  Zr2      1.0000 0.36672  0.26633  0.12526  Biso   1.000  Zr
  Zr3      1.0000 0.36636  0.48473  0.37583  Biso   1.000  Zr
  O1       1.0000 0.03614  0.17887  0.19560  Biso   1.000  O
  O2       1.0000 0.03391  0.06798  0.44977  Biso   1.000  O
  O3       1.0000 0.46428  0.43419  0.19371  Biso   1.000  O
  O4       1.0000 0.46439  0.31677  0.44407  Biso   1.000  O
  O5       1.0000 0.26678  0.11581  0.24502  Biso   1.000  O
  O6       1.0000 0.26979  0.13312  0.49757  Biso   1.000  O
  O7       1.0000 0.23023  0.38290  0.49901  Biso   1.000  O
  O8       1.0000 0.23117  0.36712  0.24932  Biso   1.000  O
  Zr4      1.0000 0.13428  0.01576  0.62652  Biso   1.000  Zr
  Zr5      1.0000 0.13448  0.23402  0.87759  Biso   1.000  Zr
  Zr6      1.0000 0.36600  0.26595  0.62547  Biso   1.000  Zr
  Zr7      1.0000 0.36592  0.48466  0.87529  Biso   1.000  Zr
  O9       1.0000 0.03333  0.18111  0.70120  Biso   1.000  O
  O10      1.0000 0.03637  0.06494  0.95733  Biso   1.000  O
  O11      1.0000 0.46374  0.43424  0.69361  Biso   1.000  O
  O12      1.0000 0.46302  0.31521  0.94339  Biso   1.000  O
  O13      1.0000 0.26979  0.11737  0.74945  Biso   1.000  O
  O14      1.0000 0.26985  0.12976  0.00024  Biso   1.000  O
  O15      1.0000 0.23016  0.38229  0.99938  Biso   1.000  O
  O16      1.0000 0.22972  0.36659  0.74959  Biso   1.000  O
  Zr8      1.0000 0.13447  0.51570  0.12629  Biso   1.000  Zr
  Zr9      1.0000 0.13389  0.73553  0.37507  Biso   1.000  Zr
  Zr10     1.0000 0.36409  0.76762  0.12622  Biso   1.000  Zr
  Zr11     1.0000 0.36523  0.98441  0.37433  Biso   1.000  Zr
  O17      1.0000 0.03612  0.68246  0.19411  Biso   1.000  O
  O18      1.0000 0.03567  0.56664  0.44372  Biso   1.000  O
  O19      1.0000 0.46512  0.93330  0.19493  Biso   1.000  O
  O20      1.0000 0.46415  0.81660  0.44337  Biso   1.000  O
  O21      1.0000 0.27031  0.61880  0.24926  Biso   1.000  O
  O22      1.0000 0.26960  0.63327  0.49880  Biso   1.000  O
  O23      1.0000 0.23051  0.88329  0.49907  Biso   1.000  O
  O24      1.0000 0.22679  0.87148  0.24749  Biso   1.000  O
  Zr12     1.0000 0.13353  0.51562  0.62517  Biso   1.000  Zr
  Zr13     1.0000 0.13322  0.73379  0.87570  Biso   1.000  Zr
  Zr14     1.0000 0.36633  0.76588  0.62534  Biso   1.000  Zr
  Zr15     1.0000 0.36469  0.98328  0.87710  Biso   1.000  Zr
  O25      1.0000 0.03529  0.68335  0.69391  Biso   1.000  O
  O26      1.0000 0.03546  0.56535  0.94510  Biso   1.000  O
  O27      1.0000 0.46391  0.93399  0.69471  Biso   1.000  O
  O28      1.0000 0.46209  0.81586  0.94463  Biso   1.000  O
  O29      1.0000 0.26930  0.61694  0.74882  Biso   1.000  O
  O30      1.0000 0.26985  0.63287  0.99912  Biso   1.000  O
  O31      1.0000 0.22412  0.88355  0.00131  Biso   1.000  O
  O32      1.0000 0.23065  0.86667  0.74974  Biso   1.000  O
  Zr16     1.0000 0.63398  0.01573  0.12491  Biso   1.000  Zr
  Zr17     1.0000 0.63388  0.23426  0.37575  Biso   1.000  Zr
  Zr18     1.0000 0.86648  0.26465  0.12557  Biso   1.000  Zr
  Zr19     1.0000 0.86617  0.48432  0.37555  Biso   1.000  Zr
  O33      1.0000 0.53504  0.18350  0.19468  Biso   1.000  O
  O34      1.0000 0.53497  0.06638  0.44369  Biso   1.000  O
  O35      1.0000 0.96605  0.43102  0.19541  Biso   1.000  O
  O36      1.0000 0.96481  0.31628  0.44551  Biso   1.000  O
  O37      1.0000 0.76945  0.11711  0.24831  Biso   1.000  O
  O38      1.0000 0.76970  0.13306  0.49828  Biso   1.000  O
  O39      1.0000 0.73045  0.38305  0.49910  Biso   1.000  O
  O40      1.0000 0.73065  0.36706  0.24888  Biso   1.000  O
  Zr20     1.0000 0.63341  0.01524  0.62457  Biso   1.000  Zr
  Zr21     1.0000 0.63345  0.23376  0.87501  Biso   1.000  Zr
  Zr22     1.0000 0.86618  0.26479  0.62587  Biso   1.000  Zr
  Zr23     1.0000 0.86586  0.48402  0.87553  Biso   1.000  Zr
  O41      1.0000 0.53596  0.18422  0.69322  Biso   1.000  O
  O42      1.0000 0.53511  0.06588  0.94423  Biso   1.000  O
  O43      1.0000 0.96425  0.43303  0.69438  Biso   1.000  O
  O44      1.0000 0.96447  0.31535  0.94496  Biso   1.000  O
  O45      1.0000 0.76885  0.11620  0.74869  Biso   1.000  O
  O46      1.0000 0.76968  0.13283  0.99829  Biso   1.000  O
  O47      1.0000 0.73018  0.38236  0.99910  Biso   1.000  O
  O48      1.0000 0.73033  0.36666  0.74881  Biso   1.000  O
  Zr24     1.0000 0.63435  0.51645  0.12559  Biso   1.000  Zr
  Zr25     1.0000 0.63457  0.73524  0.37394  Biso   1.000  Zr
  Zr26     1.0000 0.86906  0.76680  0.12376  Biso   1.000  Zr
  Zr27     1.0000 0.86907  0.98523  0.37333  Biso   1.000  Zr
  O49      1.0000 0.53572  0.68473  0.19313  Biso   1.000  O
  O50      1.0000 0.53620  0.56699  0.44359  Biso   1.000  O
  O51      1.0000 0.97308  0.93362  0.19161  Biso   1.000  O
  O52      1.0000 0.96518  0.81710  0.44468  Biso   1.000  O
  O53      1.0000 0.77041  0.61724  0.24858  Biso   1.000  O
  O54      1.0000 0.76965  0.63356  0.49865  Biso   1.000  O
  O55      1.0000 0.73112  0.88381  0.49707  Biso   1.000  O
  O56      1.0000 0.73444  0.86781  0.24701  Biso   1.000  O
  Zr28     1.0000 0.63390  0.51600  0.62520  Biso   1.000  Zr
  Zr29     1.0000 0.63349  0.73440  0.87559  Biso   1.000  Zr
  Zr30     1.0000 0.86604  0.76608  0.62542  Biso   1.000  Zr
  Zr31     1.0000 0.86698  0.98443  0.87560  Biso   1.000  Zr
  O57      1.0000 0.53571  0.68414  0.69423  Biso   1.000  O
  O58      1.0000 0.53619  0.56553  0.94320  Biso   1.000  O
  O59      1.0000 0.96535  0.93329  0.69607  Biso   1.000  O
  O60      1.0000 0.96183  0.81473  0.94089  Biso   1.000  O
  O61      1.0000 0.76938  0.61702  0.74895  Biso   1.000  O
  O62      1.0000 0.76970  0.63303  0.99883  Biso   1.000  O
  O63      1.0000 0.72986  0.88357  0.99752  Biso   1.000  O
  O64      1.0000 0.73021  0.86721  0.74830  Biso   1.000  O
