data_image0
_cell_length_a       10.1367
_cell_length_b       10.2643
_cell_length_c       5.25599
_cell_angle_alpha    89.5763
_cell_angle_beta     90.1557
_cell_angle_gamma    89.6592

_symmetry_space_group_name_H-M    "P 1"
_symmetry_int_tables_number       1

loop_
  _symmetry_equiv_pos_as_xyz
  'x, y, z'

loop_
  _atom_site_label
  _atom_site_occupancy
  _atom_site_fract_x
  _atom_site_fract_y
  _atom_site_fract_z
  _atom_site_thermal_displace_type
  _atom_site_B_iso_or_equiv
  _atom_site_type_symbol
  N1       1.0000 0.04286  0.05110  0.35007  Biso   1.000  N
  Zr1      1.0000 0.14160  0.52182  0.34675  Biso   1.000  Zr
  Zr2      1.0000 0.15751  0.22845  0.84015  Biso   1.000  Zr
  Zr3      1.0000 0.14793  0.73525  0.84004  Biso   1.000  Zr
  Zr4      1.0000 0.35708  0.26166  0.34396  Biso   1.000  Zr
  Zr5      1.0000 0.35585  0.77843  0.34299  Biso   1.000  Zr
  Zr6      1.0000 0.36273  0.47829  0.84627  Biso   1.000  Zr
  Zr7      1.0000 0.35732  0.97849  0.83893  Biso   1.000  Zr
  Zr8      1.0000 0.63491  0.01958  0.15933  Biso   1.000  Zr
  Zr9      1.0000 0.63395  0.51999  0.16573  Biso   1.000  Zr
  Zr10     1.0000 0.63573  0.22963  0.66026  Biso   1.000  Zr
  Zr11     1.0000 0.63527  0.72662  0.65362  Biso   1.000  Zr
  Zr12     1.0000 0.85502  0.27311  0.16212  Biso   1.000  Zr
  Zr13     1.0000 0.86092  0.76096  0.14652  Biso   1.000  Zr
  Zr14     1.0000 0.86901  0.47435  0.66193  Biso   1.000  Zr
  Zr15     1.0000 0.84966  0.97734  0.67320  Biso   1.000  Zr
  O1       1.0000 0.02877  0.13534  0.16034  Biso   1.000  O
  O2       1.0000 0.03387  0.67166  0.18009  Biso   1.000  O
  O3       1.0000 0.02444  0.10275  0.58189  Biso   1.000  O
  O4       1.0000 0.03409  0.58219  0.67429  Biso   1.000  O
  O5       1.0000 0.46705  0.41288  0.17015  Biso   1.000  O
  O6       1.0000 0.47354  0.91234  0.16174  Biso   1.000  O
  O7       1.0000 0.47014  0.33688  0.66806  Biso   1.000  O
  O8       1.0000 0.47669  0.84306  0.65295  Biso   1.000  O
  O9       1.0000 0.28121  0.12925  0.60247  Biso   1.000  O
  O10      1.0000 0.27794  0.62123  0.58986  Biso   1.000  O
  O11      1.0000 0.28886  0.13574  0.07310  Biso   1.000  O
  O12      1.0000 0.27439  0.62113  0.09355  Biso   1.000  O
  O13      1.0000 0.22598  0.37420  0.59374  Biso   1.000  O
  O14      1.0000 0.23044  0.86769  0.59574  Biso   1.000  O
  O15      1.0000 0.22157  0.37452  0.09133  Biso   1.000  O
  O16      1.0000 0.23722  0.86715  0.07310  Biso   1.000  O
  O17      1.0000 0.53561  0.16561  0.33507  Biso   1.000  O
  O18      1.0000 0.53282  0.66457  0.33558  Biso   1.000  O
  O19      1.0000 0.53887  0.08327  0.83310  Biso   1.000  O
  O20      1.0000 0.53394  0.58487  0.83789  Biso   1.000  O
  O21      1.0000 0.97259  0.40545  0.34347  Biso   1.000  O
  O22      1.0000 0.97233  0.94507  0.32914  Biso   1.000  O
  O23      1.0000 0.97145  0.32307  0.85121  Biso   1.000  O
  O24      1.0000 0.96920  0.84206  0.83318  Biso   1.000  O
  O25      1.0000 0.77965  0.12200  0.91564  Biso   1.000  O
  O26      1.0000 0.77823  0.62320  0.91673  Biso   1.000  O
  O27      1.0000 0.77621  0.12437  0.41345  Biso   1.000  O
  O28      1.0000 0.77753  0.62125  0.41423  Biso   1.000  O
  O29      1.0000 0.72780  0.37372  0.91436  Biso   1.000  O
  O30      1.0000 0.72299  0.87136  0.91068  Biso   1.000  O
  O31      1.0000 0.72690  0.37501  0.41258  Biso   1.000  O
  O32      1.0000 0.74036  0.87205  0.40942  Biso   1.000  O
