data_image0
_cell_length_a       10.2151
_cell_length_b       10.3615
_cell_length_c       10.5613
_cell_angle_alpha    90.0153
_cell_angle_beta     79.6864
_cell_angle_gamma    90.1426

_symmetry_space_group_name_H-M    "P 1"
_symmetry_int_tables_number       1

loop_
  _symmetry_equiv_pos_as_xyz
  'x, y, z'

loop_
  _atom_site_label
  _atom_site_occupancy
  _atom_site_fract_x
  _atom_site_fract_y
  _atom_site_fract_z
  _atom_site_thermal_displace_type
  _atom_site_B_iso_or_equiv
  _atom_site_type_symbol
  Zr1      1.0000 0.13695  0.02230  0.14551  Biso   1.000  Zr
  Zr2      1.0000 0.13641  0.22820  0.39402  Biso   1.000  Zr
  Zr3      1.0000 0.34807  0.27567  0.08706  Biso   1.000  Zr
  Zr4      1.0000 0.35842  0.48418  0.35567  Biso   1.000  Zr
  O1       1.0000 0.03422  0.16943  0.07870  Biso   1.000  O
  O2       1.0000 0.03413  0.08087  0.32979  Biso   1.000  O
  O3       1.0000 0.46197  0.41521  0.17163  Biso   1.000  O
  O4       1.0000 0.47343  0.34090  0.42874  Biso   1.000  O
  O5       1.0000 0.27577  0.12995  0.23579  Biso   1.000  O
  O6       1.0000 0.28044  0.12328  0.48458  Biso   1.000  O
  O7       1.0000 0.21605  0.38343  0.00318  Biso   1.000  O
  O8       1.0000 0.22370  0.37070  0.25673  Biso   1.000  O
  Zr5      1.0000 0.13906  0.02174  0.64409  Biso   1.000  Zr
  Zr6      1.0000 0.13372  0.22817  0.89102  Biso   1.000  Zr
  Zr7      1.0000 0.36189  0.27333  0.60442  Biso   1.000  Zr
  Zr8      1.0000 0.35816  0.48222  0.85137  Biso   1.000  Zr
  O9       1.0000 0.03781  0.17010  0.58016  Biso   1.000  O
  O10      1.0000 0.03280  0.08093  0.82818  Biso   1.000  O
  O11      1.0000 0.46507  0.41903  0.67266  Biso   1.000  O
  O12      1.0000 0.46305  0.33445  0.91775  Biso   1.000  O
  O13      1.0000 0.27477  0.12828  0.73755  Biso   1.000  O
  O14      1.0000 0.27222  0.12326  0.98529  Biso   1.000  O
  O15      1.0000 0.22543  0.38002  0.50718  Biso   1.000  O
  O16      1.0000 0.22268  0.37130  0.75657  Biso   1.000  O
  Zr9      1.0000 0.13664  0.52400  0.14645  Biso   1.000  Zr
  Zr10     1.0000 0.13702  0.72877  0.39672  Biso   1.000  Zr
  Zr11     1.0000 0.35985  0.77249  0.10426  Biso   1.000  Zr
  Zr12     1.0000 0.36049  0.97162  0.35626  Biso   1.000  Zr
  O17      1.0000 0.03330  0.66935  0.08077  Biso   1.000  O
  O18      1.0000 0.03405  0.58164  0.33040  Biso   1.000  O
  O19      1.0000 0.46523  0.91726  0.17301  Biso   1.000  O
  O20      1.0000 0.46445  0.82912  0.42254  Biso   1.000  O
  O21      1.0000 0.27495  0.62921  0.24153  Biso   1.000  O
  O22      1.0000 0.27442  0.62335  0.49152  Biso   1.000  O
  O23      1.0000 0.22335  0.88061  0.01010  Biso   1.000  O
  O24      1.0000 0.22230  0.87084  0.26006  Biso   1.000  O
  Zr13     1.0000 0.13786  0.52208  0.64563  Biso   1.000  Zr
  Zr14     1.0000 0.13695  0.72935  0.89650  Biso   1.000  Zr
  Zr15     1.0000 0.36109  0.77153  0.60599  Biso   1.000  Zr
  Zr16     1.0000 0.35991  0.97816  0.85370  Biso   1.000  Zr
  O25      1.0000 0.03332  0.66828  0.58036  Biso   1.000  O
  O26      1.0000 0.03421  0.58182  0.83054  Biso   1.000  O
  O27      1.0000 0.46518  0.91795  0.67168  Biso   1.000  O
  O28      1.0000 0.46456  0.83317  0.92187  Biso   1.000  O
  O29      1.0000 0.27475  0.62914  0.74058  Biso   1.000  O
  O30      1.0000 0.27442  0.62333  0.99104  Biso   1.000  O
  O31      1.0000 0.22352  0.87856  0.51049  Biso   1.000  O
  O32      1.0000 0.22281  0.87122  0.75991  Biso   1.000  O
  Zr17     1.0000 0.63990  0.02029  0.14749  Biso   1.000  Zr
  Zr18     1.0000 0.65160  0.22762  0.40662  Biso   1.000  Zr
  Zr19     1.0000 0.85958  0.27194  0.10649  Biso   1.000  Zr
  Zr20     1.0000 0.86052  0.47863  0.35550  Biso   1.000  Zr
  O33      1.0000 0.52894  0.16780  0.08102  Biso   1.000  O
  O34      1.0000 0.54145  0.07484  0.33732  Biso   1.000  O
  O35      1.0000 0.96414  0.41874  0.17143  Biso   1.000  O
  O36      1.0000 0.96357  0.33085  0.42146  Biso   1.000  O
  O37      1.0000 0.77808  0.12868  0.24378  Biso   1.000  O
  O38      1.0000 0.78185  0.11901  0.49613  Biso   1.000  O
  O39      1.0000 0.72110  0.37823  0.01269  Biso   1.000  O
  O40      1.0000 0.72229  0.36961  0.26343  Biso   1.000  O
  Zr21     1.0000 0.63918  0.02100  0.64879  Biso   1.000  Zr
  Zr22     1.0000 0.63790  0.22806  0.89859  Biso   1.000  Zr
  Zr23     1.0000 0.86304  0.27195  0.60928  Biso   1.000  Zr
  Zr24     1.0000 0.85901  0.47929  0.85686  Biso   1.000  Zr
  O41      1.0000 0.53704  0.16888  0.58319  Biso   1.000  O
  O42      1.0000 0.53310  0.08258  0.83113  Biso   1.000  O
  O43      1.0000 0.96485  0.41927  0.67224  Biso   1.000  O
  O44      1.0000 0.96080  0.33064  0.92029  Biso   1.000  O
  O45      1.0000 0.77544  0.12926  0.74434  Biso   1.000  O
  O46      1.0000 0.77359  0.12064  0.99340  Biso   1.000  O
  O47      1.0000 0.72670  0.37829  0.51435  Biso   1.000  O
  O48      1.0000 0.72306  0.37164  0.76292  Biso   1.000  O
  Zr25     1.0000 0.63595  0.52101  0.14709  Biso   1.000  Zr
  Zr26     1.0000 0.63934  0.72728  0.39735  Biso   1.000  Zr
  Zr27     1.0000 0.85898  0.77104  0.10573  Biso   1.000  Zr
  Zr28     1.0000 0.86036  0.97637  0.35514  Biso   1.000  Zr
  O49      1.0000 0.53227  0.66691  0.07990  Biso   1.000  O
  O50      1.0000 0.53260  0.58382  0.32922  Biso   1.000  O
  O51      1.0000 0.96379  0.91788  0.17134  Biso   1.000  O
  O52      1.0000 0.96432  0.83118  0.42160  Biso   1.000  O
  O53      1.0000 0.77478  0.62734  0.24180  Biso   1.000  O
  O54      1.0000 0.77528  0.62050  0.49173  Biso   1.000  O
  O55      1.0000 0.72244  0.87830  0.01153  Biso   1.000  O
  O56      1.0000 0.72295  0.86985  0.26047  Biso   1.000  O
  Zr29     1.0000 0.63877  0.52217  0.64810  Biso   1.000  Zr
  Zr30     1.0000 0.63743  0.72839  0.89746  Biso   1.000  Zr
  Zr31     1.0000 0.86014  0.77196  0.60603  Biso   1.000  Zr
  Zr32     1.0000 0.85931  0.97775  0.85594  Biso   1.000  Zr
  O57      1.0000 0.53400  0.66724  0.58068  Biso   1.000  O
  O58      1.0000 0.53275  0.58380  0.82980  Biso   1.000  O
  O59      1.0000 0.96426  0.91853  0.67121  Biso   1.000  O
  O60      1.0000 0.96359  0.83180  0.92175  Biso   1.000  O
  O61      1.0000 0.77514  0.62936  0.74230  Biso   1.000  O
  O62      1.0000 0.77399  0.62114  0.99225  Biso   1.000  O
  O63      1.0000 0.72321  0.87810  0.51127  Biso   1.000  O
  O64      1.0000 0.72282  0.87157  0.76160  Biso   1.000  O
  Na1      1.0000 0.44906  0.23057  0.27598  Biso   1.000  Na
