data_image0
_cell_length_a       10.0685
_cell_length_b       10.4046
_cell_length_c       10.1041
_cell_angle_alpha    90.0724
_cell_angle_beta     90.0832
_cell_angle_gamma    90.0084

_symmetry_space_group_name_H-M    "P 1"
_symmetry_int_tables_number       1

loop_
  _symmetry_equiv_pos_as_xyz
  'x, y, z'

loop_
  _atom_site_label
  _atom_site_occupancy
  _atom_site_fract_x
  _atom_site_fract_y
  _atom_site_fract_z
  _atom_site_thermal_displace_type
  _atom_site_B_iso_or_equiv
  _atom_site_type_symbol
  Na1      1.0000 0.13144  0.01322  0.12011  Biso   1.000  Na
  Zr1      1.0000 0.13358  0.01702  0.62854  Biso   1.000  Zr
  Zr2      1.0000 0.13579  0.51508  0.12531  Biso   1.000  Zr
  Zr3      1.0000 0.13436  0.51650  0.62602  Biso   1.000  Zr
  Zr4      1.0000 0.63317  0.01428  0.12307  Biso   1.000  Zr
  Zr5      1.0000 0.63193  0.01508  0.62320  Biso   1.000  Zr
  Zr6      1.0000 0.63364  0.51538  0.12568  Biso   1.000  Zr
  Zr7      1.0000 0.63331  0.51560  0.62600  Biso   1.000  Zr
  Zr8      1.0000 0.13479  0.23222  0.37412  Biso   1.000  Zr
  Zr9      1.0000 0.13651  0.23343  0.87646  Biso   1.000  Zr
  Zr10     1.0000 0.13561  0.73598  0.37578  Biso   1.000  Zr
  Zr11     1.0000 0.13720  0.73589  0.87839  Biso   1.000  Zr
  Zr12     1.0000 0.63222  0.23361  0.37371  Biso   1.000  Zr
  Zr13     1.0000 0.63459  0.23286  0.87447  Biso   1.000  Zr
  Zr14     1.0000 0.63217  0.73467  0.37586  Biso   1.000  Zr
  Zr15     1.0000 0.63577  0.73439  0.87523  Biso   1.000  Zr
  Zr16     1.0000 0.36270  0.26345  0.12701  Biso   1.000  Zr
  Zr17     1.0000 0.36557  0.26555  0.62534  Biso   1.000  Zr
  Zr18     1.0000 0.36342  0.76663  0.12530  Biso   1.000  Zr
  Zr19     1.0000 0.36603  0.76758  0.62618  Biso   1.000  Zr
  Zr20     1.0000 0.86392  0.26406  0.12548  Biso   1.000  Zr
  Zr21     1.0000 0.86412  0.26616  0.62346  Biso   1.000  Zr
  Zr22     1.0000 0.86556  0.76789  0.12598  Biso   1.000  Zr
  Zr23     1.0000 0.86601  0.76463  0.62451  Biso   1.000  Zr
  Zr24     1.0000 0.36474  0.48415  0.37574  Biso   1.000  Zr
  Zr25     1.0000 0.36578  0.48360  0.87590  Biso   1.000  Zr
  Zr26     1.0000 0.36040  0.98475  0.37195  Biso   1.000  Zr
  Zr27     1.0000 0.36176  0.98325  0.87964  Biso   1.000  Zr
  Zr28     1.0000 0.86518  0.48520  0.37657  Biso   1.000  Zr
  Zr29     1.0000 0.86620  0.48394  0.87655  Biso   1.000  Zr
  Zr30     1.0000 0.86701  0.98357  0.37414  Biso   1.000  Zr
  Zr31     1.0000 0.86627  0.98339  0.87211  Biso   1.000  Zr
  O1       1.0000 0.02701  0.19318  0.20541  Biso   1.000  O
  O2       1.0000 0.03698  0.18879  0.68951  Biso   1.000  O
  O3       1.0000 0.03446  0.68229  0.19578  Biso   1.000  O
  O4       1.0000 0.03559  0.68431  0.69468  Biso   1.000  O
  O5       1.0000 0.53822  0.18490  0.19086  Biso   1.000  O
  O6       1.0000 0.53580  0.18426  0.69333  Biso   1.000  O
  O7       1.0000 0.53349  0.68099  0.19720  Biso   1.000  O
  O8       1.0000 0.53482  0.68304  0.69595  Biso   1.000  O
  O9       1.0000 0.03282  0.06779  0.44862  Biso   1.000  O
  O10      1.0000 0.03791  0.06752  0.91237  Biso   1.000  O
  O11      1.0000 0.03442  0.56632  0.44656  Biso   1.000  O
  O12      1.0000 0.03510  0.56761  0.94553  Biso   1.000  O
  O13      1.0000 0.53265  0.06680  0.44397  Biso   1.000  O
  O14      1.0000 0.53684  0.06628  0.94250  Biso   1.000  O
  O15      1.0000 0.53342  0.56694  0.44652  Biso   1.000  O
  O16      1.0000 0.53453  0.56715  0.94576  Biso   1.000  O
  O17      1.0000 0.46551  0.43215  0.19670  Biso   1.000  O
  O18      1.0000 0.46498  0.43353  0.69511  Biso   1.000  O
  O19      1.0000 0.46570  0.93427  0.19513  Biso   1.000  O
  O20      1.0000 0.46533  0.93330  0.69748  Biso   1.000  O
  O21      1.0000 0.96432  0.43589  0.19601  Biso   1.000  O
  O22      1.0000 0.96536  0.43414  0.69631  Biso   1.000  O
  O23      1.0000 0.95366  0.92777  0.20150  Biso   1.000  O
  O24      1.0000 0.96206  0.93330  0.68897  Biso   1.000  O
  O25      1.0000 0.46488  0.31669  0.44534  Biso   1.000  O
  O26      1.0000 0.46713  0.31784  0.94394  Biso   1.000  O
  O27      1.0000 0.46666  0.81866  0.44940  Biso   1.000  O
  O28      1.0000 0.47213  0.81929  0.94846  Biso   1.000  O
  O29      1.0000 0.96539  0.31958  0.44733  Biso   1.000  O
  O30      1.0000 0.96658  0.31776  0.94760  Biso   1.000  O
  O31      1.0000 0.96486  0.81515  0.44543  Biso   1.000  O
  O32      1.0000 0.96488  0.81636  0.94363  Biso   1.000  O
  O33      1.0000 0.28050  0.12850  0.25619  Biso   1.000  O
  O34      1.0000 0.27231  0.11872  0.74773  Biso   1.000  O
  O35      1.0000 0.26864  0.61393  0.24891  Biso   1.000  O
  O36      1.0000 0.27003  0.61825  0.74959  Biso   1.000  O
  O37      1.0000 0.76691  0.11497  0.24752  Biso   1.000  O
  O38      1.0000 0.76931  0.11665  0.74586  Biso   1.000  O
  O39      1.0000 0.76922  0.61676  0.24857  Biso   1.000  O
  O40      1.0000 0.77021  0.61594  0.74828  Biso   1.000  O
  O41      1.0000 0.26812  0.13149  0.50161  Biso   1.000  O
  O42      1.0000 0.27770  0.13708  0.99278  Biso   1.000  O
  O43      1.0000 0.26970  0.63385  0.49919  Biso   1.000  O
  O44      1.0000 0.27121  0.62850  0.99990  Biso   1.000  O
  O45      1.0000 0.76699  0.13506  0.49695  Biso   1.000  O
  O46      1.0000 0.77239  0.13172  0.99655  Biso   1.000  O
  O47      1.0000 0.76795  0.63304  0.49846  Biso   1.000  O
  O48      1.0000 0.76898  0.63153  0.99828  Biso   1.000  O
  O49      1.0000 0.23119  0.38343  0.49926  Biso   1.000  O
  O50      1.0000 0.23166  0.38243  0.99980  Biso   1.000  O
  O51      1.0000 0.22852  0.88407  0.50124  Biso   1.000  O
  O52      1.0000 0.23739  0.87239  0.99468  Biso   1.000  O
  O53      1.0000 0.72951  0.38397  0.49855  Biso   1.000  O
  O54      1.0000 0.72975  0.38267  0.99814  Biso   1.000  O
  O55      1.0000 0.73095  0.88319  0.49790  Biso   1.000  O
  O56      1.0000 0.73184  0.88193  0.99824  Biso   1.000  O
  O57      1.0000 0.22772  0.36971  0.24900  Biso   1.000  O
  O58      1.0000 0.23092  0.36808  0.74892  Biso   1.000  O
  O59      1.0000 0.24080  0.85708  0.25658  Biso   1.000  O
  O60      1.0000 0.22969  0.86856  0.74816  Biso   1.000  O
  O61      1.0000 0.73085  0.36698  0.24930  Biso   1.000  O
  O62      1.0000 0.73089  0.36704  0.74858  Biso   1.000  O
  O63      1.0000 0.72290  0.86545  0.24773  Biso   1.000  O
  O64      1.0000 0.73030  0.86610  0.74738  Biso   1.000  O
