data_image0
_cell_length_a       10.1176
_cell_length_b       5.12831
_cell_length_c       10.1379
_cell_angle_alpha    90.0002
_cell_angle_beta     90.0001
_cell_angle_gamma    89.9997

_symmetry_space_group_name_H-M    "P 1"
_symmetry_int_tables_number       1

loop_
  _symmetry_equiv_pos_as_xyz
  'x, y, z'

loop_
  _atom_site_label
  _atom_site_occupancy
  _atom_site_fract_x
  _atom_site_fract_y
  _atom_site_fract_z
  _atom_site_thermal_displace_type
  _atom_site_B_iso_or_equiv
  _atom_site_type_symbol
  Zr1      1.0000 0.12537  0.00041  0.12543  Biso   1.000  Zr
  Zr2      1.0000 0.12537  0.50041  0.39206  Biso   1.000  Zr
  Zr3      1.0000 0.39745  0.50040  0.12542  Biso   1.000  Zr
  Zr4      1.0000 0.37289  0.00043  0.37463  Biso   1.000  Zr
  O1       1.0000 0.99891  0.27195  0.99744  Biso   1.000  O
  O2       1.0000 0.00426  0.24074  0.24639  Biso   1.000  O
  O3       1.0000 0.99891  0.72887  0.25342  Biso   1.000  O
  O4       1.0000 0.00426  0.76009  0.00448  Biso   1.000  O
  O5       1.0000 0.25183  0.27194  0.25342  Biso   1.000  O
  O6       1.0000 0.24648  0.24074  0.00448  Biso   1.000  O
  O7       1.0000 0.25183  0.72887  0.99744  Biso   1.000  O
  O8       1.0000 0.24648  0.76008  0.24638  Biso   1.000  O
  Zr5      1.0000 0.12537  0.00040  0.62543  Biso   1.000  Zr
  Zr6      1.0000 0.12537  0.50040  0.85880  Biso   1.000  Zr
  Zr7      1.0000 0.38050  0.50040  0.62543  Biso   1.000  Zr
  Zr8      1.0000 0.37289  0.00036  0.87622  Biso   1.000  Zr
  O9       1.0000 0.99144  0.27674  0.49839  Biso   1.000  O
  O10      1.0000 0.00597  0.22127  0.74637  Biso   1.000  O
  O11      1.0000 0.99144  0.72406  0.75248  Biso   1.000  O
  O12      1.0000 0.00597  0.77952  0.50450  Biso   1.000  O
  O13      1.0000 0.25931  0.27674  0.75248  Biso   1.000  O
  O14      1.0000 0.24477  0.22129  0.50450  Biso   1.000  O
  O15      1.0000 0.25931  0.72407  0.49838  Biso   1.000  O
  O16      1.0000 0.24477  0.77952  0.74636  Biso   1.000  O
  Zr9      1.0000 0.62537  0.00039  0.12543  Biso   1.000  Zr
  Zr10     1.0000 0.62537  0.50040  0.37387  Biso   1.000  Zr
  Zr11     1.0000 0.85328  0.50039  0.12543  Biso   1.000  Zr
  Zr12     1.0000 0.87786  0.00037  0.37463  Biso   1.000  Zr
  O17      1.0000 0.49614  0.26979  0.98651  Biso   1.000  O
  O18      1.0000 0.50130  0.21766  0.24511  Biso   1.000  O
  O19      1.0000 0.49614  0.73102  0.26435  Biso   1.000  O
  O20      1.0000 0.50130  0.78315  0.00574  Biso   1.000  O
  O21      1.0000 0.75460  0.26978  0.26434  Biso   1.000  O
  O22      1.0000 0.74944  0.21765  0.00574  Biso   1.000  O
  O23      1.0000 0.75459  0.73101  0.98651  Biso   1.000  O
  O24      1.0000 0.74944  0.78313  0.24512  Biso   1.000  O
  Zr13     1.0000 0.62537  0.00039  0.62542  Biso   1.000  Zr
  Zr14     1.0000 0.62537  0.50039  0.87699  Biso   1.000  Zr
  Zr15     1.0000 0.87024  0.50040  0.62543  Biso   1.000  Zr
  Zr16     1.0000 0.87785  0.00042  0.87623  Biso   1.000  Zr
  O25      1.0000 0.49174  0.28638  0.48966  Biso   1.000  O
  O26      1.0000 0.50411  0.21592  0.74227  Biso   1.000  O
  O27      1.0000 0.49174  0.71440  0.76119  Biso   1.000  O
  O28      1.0000 0.50411  0.78486  0.50859  Biso   1.000  O
  O29      1.0000 0.75900  0.28640  0.76119  Biso   1.000  O
  O30      1.0000 0.74664  0.21593  0.50859  Biso   1.000  O
  O31      1.0000 0.75900  0.71441  0.48967  Biso   1.000  O
  O32      1.0000 0.74664  0.78488  0.74227  Biso   1.000  O
  Nb1      1.0000 0.12537  0.50041  0.12543  Biso   1.000  Nb
