data_image0
_cell_length_a       10.161
_cell_length_b       10.307
_cell_length_c       10.4929
_cell_angle_alpha    90.0545
_cell_angle_beta     80.7051
_cell_angle_gamma    89.6311

_symmetry_space_group_name_H-M    "P 1"
_symmetry_int_tables_number       1

loop_
  _symmetry_equiv_pos_as_xyz
  'x, y, z'

loop_
  _atom_site_label
  _atom_site_occupancy
  _atom_site_fract_x
  _atom_site_fract_y
  _atom_site_fract_z
  _atom_site_thermal_displace_type
  _atom_site_B_iso_or_equiv
  _atom_site_type_symbol
  Ni1      1.0000 0.12330  0.00967  0.17151  Biso   1.000  Ni
  Zr1      1.0000 0.13699  0.02051  0.64215  Biso   1.000  Zr
  Zr2      1.0000 0.13981  0.52297  0.14529  Biso   1.000  Zr
  Zr3      1.0000 0.14025  0.52048  0.64623  Biso   1.000  Zr
  Zr4      1.0000 0.63785  0.02224  0.14483  Biso   1.000  Zr
  Zr5      1.0000 0.63814  0.02149  0.64615  Biso   1.000  Zr
  Zr6      1.0000 0.63755  0.52045  0.14422  Biso   1.000  Zr
  Zr7      1.0000 0.63868  0.52119  0.64684  Biso   1.000  Zr
  Zr8      1.0000 0.13935  0.22919  0.38904  Biso   1.000  Zr
  Zr9      1.0000 0.14368  0.22252  0.89625  Biso   1.000  Zr
  Zr10     1.0000 0.13587  0.72809  0.39698  Biso   1.000  Zr
  Zr11     1.0000 0.13873  0.73254  0.89569  Biso   1.000  Zr
  Zr12     1.0000 0.63858  0.22893  0.39502  Biso   1.000  Zr
  Zr13     1.0000 0.64079  0.23067  0.89667  Biso   1.000  Zr
  Zr14     1.0000 0.63777  0.72806  0.39522  Biso   1.000  Zr
  Zr15     1.0000 0.63669  0.72920  0.89724  Biso   1.000  Zr
  Zr16     1.0000 0.35857  0.26841  0.10090  Biso   1.000  Zr
  Zr17     1.0000 0.36060  0.27181  0.60347  Biso   1.000  Zr
  Zr18     1.0000 0.35551  0.77813  0.10345  Biso   1.000  Zr
  Zr19     1.0000 0.36135  0.77224  0.60527  Biso   1.000  Zr
  Zr20     1.0000 0.86995  0.26460  0.10822  Biso   1.000  Zr
  Zr21     1.0000 0.86148  0.27100  0.60474  Biso   1.000  Zr
  Zr22     1.0000 0.86248  0.77165  0.10429  Biso   1.000  Zr
  Zr23     1.0000 0.85888  0.76963  0.60719  Biso   1.000  Zr
  Zr24     1.0000 0.36205  0.47944  0.35359  Biso   1.000  Zr
  Zr25     1.0000 0.36103  0.48003  0.85519  Biso   1.000  Zr
  Zr26     1.0000 0.35876  0.97929  0.35132  Biso   1.000  Zr
  Zr27     1.0000 0.36080  0.98460  0.85557  Biso   1.000  Zr
  Zr28     1.0000 0.86038  0.47864  0.35437  Biso   1.000  Zr
  Zr29     1.0000 0.86462  0.47631  0.85827  Biso   1.000  Zr
  Zr30     1.0000 0.85741  0.97628  0.35649  Biso   1.000  Zr
  Zr31     1.0000 0.86120  0.97961  0.85477  Biso   1.000  Zr
  O1       1.0000 0.04735  0.15066  0.08579  Biso   1.000  O
  O2       1.0000 0.03291  0.16236  0.56955  Biso   1.000  O
  O3       1.0000 0.03587  0.66977  0.08032  Biso   1.000  O
  O4       1.0000 0.03390  0.66597  0.58023  Biso   1.000  O
  O5       1.0000 0.53605  0.16947  0.07980  Biso   1.000  O
  O6       1.0000 0.53556  0.16939  0.57903  Biso   1.000  O
  O7       1.0000 0.53336  0.67004  0.07986  Biso   1.000  O
  O8       1.0000 0.53543  0.66911  0.57911  Biso   1.000  O
  O9       1.0000 0.03606  0.07703  0.32321  Biso   1.000  O
  O10      1.0000 0.03428  0.08317  0.82514  Biso   1.000  O
  O11      1.0000 0.03549  0.57991  0.33053  Biso   1.000  O
  O12      1.0000 0.03699  0.58219  0.83166  Biso   1.000  O
  O13      1.0000 0.53185  0.08311  0.32863  Biso   1.000  O
  O14      1.0000 0.53961  0.08139  0.82977  Biso   1.000  O
  O15      1.0000 0.53675  0.57949  0.33024  Biso   1.000  O
  O16      1.0000 0.53417  0.58430  0.82838  Biso   1.000  O
  O17      1.0000 0.46427  0.41891  0.16997  Biso   1.000  O
  O18      1.0000 0.46467  0.41877  0.67047  Biso   1.000  O
  O19      1.0000 0.46383  0.91785  0.17171  Biso   1.000  O
  O20      1.0000 0.46433  0.92024  0.66928  Biso   1.000  O
  O21      1.0000 0.96839  0.41629  0.17177  Biso   1.000  O
  O22      1.0000 0.96822  0.41338  0.67458  Biso   1.000  O
  O23      1.0000 0.96787  0.91984  0.17251  Biso   1.000  O
  O24      1.0000 0.96426  0.91584  0.67140  Biso   1.000  O
  O25      1.0000 0.46485  0.33234  0.42032  Biso   1.000  O
  O26      1.0000 0.47105  0.33904  0.92228  Biso   1.000  O
  O27      1.0000 0.46281  0.83093  0.41828  Biso   1.000  O
  O28      1.0000 0.45935  0.83210  0.92056  Biso   1.000  O
  O29      1.0000 0.96412  0.32984  0.41916  Biso   1.000  O
  O30      1.0000 0.96979  0.32836  0.92861  Biso   1.000  O
  O31      1.0000 0.96210  0.83060  0.42318  Biso   1.000  O
  O32      1.0000 0.96333  0.83153  0.92134  Biso   1.000  O
  O33      1.0000 0.26290  0.11801  0.22707  Biso   1.000  O
  O34      1.0000 0.27387  0.12665  0.73230  Biso   1.000  O
  O35      1.0000 0.27503  0.63398  0.24158  Biso   1.000  O
  O36      1.0000 0.27579  0.62963  0.74037  Biso   1.000  O
  O37      1.0000 0.77457  0.12635  0.24193  Biso   1.000  O
  O38      1.0000 0.77774  0.12969  0.73992  Biso   1.000  O
  O39      1.0000 0.77615  0.62864  0.24037  Biso   1.000  O
  O40      1.0000 0.77648  0.62749  0.74287  Biso   1.000  O
  O41      1.0000 0.27623  0.12328  0.48276  Biso   1.000  O
  O42      1.0000 0.29751  0.13978  0.96960  Biso   1.000  O
  O43      1.0000 0.27578  0.62093  0.49119  Biso   1.000  O
  O44      1.0000 0.27552  0.62673  0.99056  Biso   1.000  O
  O45      1.0000 0.77630  0.12011  0.49022  Biso   1.000  O
  O46      1.0000 0.77791  0.12113  0.99195  Biso   1.000  O
  O47      1.0000 0.77552  0.62023  0.49151  Biso   1.000  O
  O48      1.0000 0.77648  0.62156  0.99145  Biso   1.000  O
  O49      1.0000 0.22455  0.38340  0.00897  Biso   1.000  O
  O50      1.0000 0.22246  0.37829  0.50772  Biso   1.000  O
  O51      1.0000 0.21940  0.89935  0.01786  Biso   1.000  O
  O52      1.0000 0.22352  0.87870  0.50761  Biso   1.000  O
  O53      1.0000 0.72970  0.37722  0.01184  Biso   1.000  O
  O54      1.0000 0.72428  0.37811  0.51036  Biso   1.000  O
  O55      1.0000 0.72284  0.87954  0.01021  Biso   1.000  O
  O56      1.0000 0.72151  0.87755  0.51036  Biso   1.000  O
  O57      1.0000 0.22672  0.36952  0.25820  Biso   1.000  O
  O58      1.0000 0.22597  0.36937  0.75997  Biso   1.000  O
  O59      1.0000 0.21004  0.87628  0.25710  Biso   1.000  O
  O60      1.0000 0.22388  0.87186  0.76063  Biso   1.000  O
  O61      1.0000 0.72710  0.36891  0.25937  Biso   1.000  O
  O62      1.0000 0.72629  0.37236  0.76116  Biso   1.000  O
  O63      1.0000 0.72683  0.87116  0.25920  Biso   1.000  O
  O64      1.0000 0.72320  0.87105  0.76070  Biso   1.000  O
