data_image0
_cell_length_a       10.0723
_cell_length_b       10.4794
_cell_length_c       5.0567
_cell_angle_alpha    89.9195
_cell_angle_beta     89.362
_cell_angle_gamma    90.0533

_symmetry_space_group_name_H-M    "P 1"
_symmetry_int_tables_number       1

loop_
  _symmetry_equiv_pos_as_xyz
  'x, y, z'

loop_
  _atom_site_label
  _atom_site_occupancy
  _atom_site_fract_x
  _atom_site_fract_y
  _atom_site_fract_z
  _atom_site_thermal_displace_type
  _atom_site_B_iso_or_equiv
  _atom_site_type_symbol
  Zr1      1.0000 0.13663  0.01662  0.25325  Biso   1.000  Zr
  Zr2      1.0000 0.13536  0.22637  0.76843  Biso   1.000  Zr
  Zr3      1.0000 0.36892  0.26371  0.25454  Biso   1.000  Zr
  Zr4      1.0000 0.36718  0.48330  0.75354  Biso   1.000  Zr
  O1       1.0000 0.01861  0.16853  0.42594  Biso   1.000  O
  O2       1.0000 0.03501  0.06220  0.90409  Biso   1.000  O
  O3       1.0000 0.46623  0.43317  0.39305  Biso   1.000  O
  O4       1.0000 0.46425  0.31693  0.89184  Biso   1.000  O
  O5       1.0000 0.26823  0.11506  0.50445  Biso   1.000  O
  O6       1.0000 0.28206  0.12442  0.99631  Biso   1.000  O
  O7       1.0000 0.22641  0.38037  0.01719  Biso   1.000  O
  O8       1.0000 0.23616  0.36814  0.51838  Biso   1.000  O
  Zr5      1.0000 0.13535  0.53107  0.25133  Biso   1.000  Zr
  Zr6      1.0000 0.13561  0.73772  0.75230  Biso   1.000  Zr
  Zr7      1.0000 0.36982  0.76652  0.25061  Biso   1.000  Zr
  Zr8      1.0000 0.36896  0.98208  0.75134  Biso   1.000  Zr
  O9       1.0000 0.03411  0.68654  0.39515  Biso   1.000  O
  O10      1.0000 0.03707  0.56856  0.88876  Biso   1.000  O
  O11      1.0000 0.46621  0.93256  0.38575  Biso   1.000  O
  O12      1.0000 0.46809  0.81609  0.88908  Biso   1.000  O
  O13      1.0000 0.27299  0.62075  0.50051  Biso   1.000  O
  O14      1.0000 0.27169  0.63423  0.99683  Biso   1.000  O
  O15      1.0000 0.23159  0.88072  0.99938  Biso   1.000  O
  O16      1.0000 0.23309  0.86725  0.49788  Biso   1.000  O
  Zr9      1.0000 0.63427  0.01376  0.24479  Biso   1.000  Zr
  Zr10     1.0000 0.63267  0.23289  0.74559  Biso   1.000  Zr
  Zr11     1.0000 0.85775  0.26402  0.23831  Biso   1.000  Zr
  Zr12     1.0000 0.86844  0.48252  0.74518  Biso   1.000  Zr
  O17      1.0000 0.53494  0.18080  0.39060  Biso   1.000  O
  O18      1.0000 0.53834  0.06510  0.88550  Biso   1.000  O
  O19      1.0000 0.96693  0.43172  0.37568  Biso   1.000  O
  O20      1.0000 0.95653  0.31576  0.86400  Biso   1.000  O
  O21      1.0000 0.76541  0.11405  0.49103  Biso   1.000  O
  O22      1.0000 0.76867  0.13248  0.98906  Biso   1.000  O
  O23      1.0000 0.72732  0.38250  0.99227  Biso   1.000  O
  O24      1.0000 0.72968  0.36694  0.49180  Biso   1.000  O
  Zr13     1.0000 0.63445  0.51574  0.24848  Biso   1.000  Zr
  Zr14     1.0000 0.63618  0.73239  0.74772  Biso   1.000  Zr
  Zr15     1.0000 0.86561  0.76594  0.24551  Biso   1.000  Zr
  Zr16     1.0000 0.86845  0.98416  0.74169  Biso   1.000  Zr
  O25      1.0000 0.53753  0.68336  0.38742  Biso   1.000  O
  O26      1.0000 0.53550  0.56625  0.88741  Biso   1.000  O
  O27      1.0000 0.96732  0.92851  0.39199  Biso   1.000  O
  O28      1.0000 0.96556  0.81678  0.88888  Biso   1.000  O
  O29      1.0000 0.77072  0.61532  0.49194  Biso   1.000  O
  O30      1.0000 0.77009  0.63225  0.99284  Biso   1.000  O
  O31      1.0000 0.73318  0.88286  0.99230  Biso   1.000  O
  O32      1.0000 0.73127  0.86552  0.49316  Biso   1.000  O
  Ni1      1.0000 0.10750  0.29455  0.25246  Biso   1.000  Ni
