data_image0
_cell_length_a       9.98263
_cell_length_b       10.4133
_cell_length_c       5.02186
_cell_angle_alpha    90.6848
_cell_angle_beta     88.8648
_cell_angle_gamma    90.4513

_symmetry_space_group_name_H-M    "P 1"
_symmetry_int_tables_number       1

loop_
  _symmetry_equiv_pos_as_xyz
  'x, y, z'

loop_
  _atom_site_label
  _atom_site_occupancy
  _atom_site_fract_x
  _atom_site_fract_y
  _atom_site_fract_z
  _atom_site_thermal_displace_type
  _atom_site_B_iso_or_equiv
  _atom_site_type_symbol
  Ni1      1.0000 0.12712  0.04174  0.21031  Biso   1.000  Ni
  Zr1      1.0000 0.13502  0.51386  0.25192  Biso   1.000  Zr
  Zr2      1.0000 0.63150  0.01357  0.24382  Biso   1.000  Zr
  Zr3      1.0000 0.63483  0.51901  0.25496  Biso   1.000  Zr
  Zr4      1.0000 0.13175  0.23368  0.74181  Biso   1.000  Zr
  Zr5      1.0000 0.13337  0.73328  0.76125  Biso   1.000  Zr
  Zr6      1.0000 0.63213  0.23355  0.74989  Biso   1.000  Zr
  Zr7      1.0000 0.63489  0.73826  0.75329  Biso   1.000  Zr
  Zr8      1.0000 0.36732  0.26286  0.25041  Biso   1.000  Zr
  Zr9      1.0000 0.36605  0.76681  0.26583  Biso   1.000  Zr
  Zr10     1.0000 0.86287  0.26456  0.24081  Biso   1.000  Zr
  Zr11     1.0000 0.87747  0.77047  0.23997  Biso   1.000  Zr
  Zr12     1.0000 0.36731  0.48588  0.75183  Biso   1.000  Zr
  Zr13     1.0000 0.35797  0.98256  0.76260  Biso   1.000  Zr
  Zr14     1.0000 0.86409  0.48618  0.74691  Biso   1.000  Zr
  Zr15     1.0000 0.87126  0.98778  0.73264  Biso   1.000  Zr
  O1       1.0000 0.03805  0.18099  0.37026  Biso   1.000  O
  O2       1.0000 0.03703  0.68305  0.39286  Biso   1.000  O
  O3       1.0000 0.53037  0.18155  0.40034  Biso   1.000  O
  O4       1.0000 0.53378  0.68274  0.40439  Biso   1.000  O
  O5       1.0000 0.03320  0.06529  0.90515  Biso   1.000  O
  O6       1.0000 0.03250  0.56377  0.89672  Biso   1.000  O
  O7       1.0000 0.52670  0.07188  0.90654  Biso   1.000  O
  O8       1.0000 0.53612  0.56838  0.89496  Biso   1.000  O
  O9       1.0000 0.46543  0.43164  0.38977  Biso   1.000  O
  O10      1.0000 0.47312  0.93021  0.41620  Biso   1.000  O
  O11      1.0000 0.96586  0.42784  0.38760  Biso   1.000  O
  O12      1.0000 0.98489  0.94352  0.37262  Biso   1.000  O
  O13      1.0000 0.46086  0.31576  0.89010  Biso   1.000  O
  O14      1.0000 0.46578  0.82174  0.91200  Biso   1.000  O
  O15      1.0000 0.96020  0.31285  0.87232  Biso   1.000  O
  O16      1.0000 0.96199  0.81796  0.87291  Biso   1.000  O
  O17      1.0000 0.25624  0.10317  0.49082  Biso   1.000  O
  O18      1.0000 0.26751  0.60883  0.50176  Biso   1.000  O
  O19      1.0000 0.76748  0.11729  0.48738  Biso   1.000  O
  O20      1.0000 0.77136  0.61759  0.49840  Biso   1.000  O
  O21      1.0000 0.25695  0.13389  0.00545  Biso   1.000  O
  O22      1.0000 0.26949  0.63640  0.00325  Biso   1.000  O
  O23      1.0000 0.76750  0.13408  0.98570  Biso   1.000  O
  O24      1.0000 0.76925  0.63749  0.99998  Biso   1.000  O
  O25      1.0000 0.22830  0.38293  0.99375  Biso   1.000  O
  O26      1.0000 0.22209  0.89749  0.04702  Biso   1.000  O
  O27      1.0000 0.72955  0.38374  0.99770  Biso   1.000  O
  O28      1.0000 0.73254  0.88751  0.98511  Biso   1.000  O
  O29      1.0000 0.23202  0.36209  0.49541  Biso   1.000  O
  O30      1.0000 0.24818  0.85006  0.54651  Biso   1.000  O
  O31      1.0000 0.72840  0.36709  0.49507  Biso   1.000  O
  O32      1.0000 0.74158  0.86702  0.48612  Biso   1.000  O
