data_image0
_cell_length_a       10.1559
_cell_length_b       5.12011
_cell_length_c       10.5156
_cell_angle_alpha    90.0005
_cell_angle_beta     80.8618
_cell_angle_gamma    89.174

_symmetry_space_group_name_H-M    "P 1"
_symmetry_int_tables_number       1

loop_
  _symmetry_equiv_pos_as_xyz
  'x, y, z'

loop_
  _atom_site_label
  _atom_site_occupancy
  _atom_site_fract_x
  _atom_site_fract_y
  _atom_site_fract_z
  _atom_site_thermal_displace_type
  _atom_site_B_iso_or_equiv
  _atom_site_type_symbol
  Ni1      1.0000 0.12472  0.02133  0.17044  Biso   1.000  Ni
  Zr1      1.0000 0.13778  0.03749  0.64261  Biso   1.000  Zr
  Zr2      1.0000 0.63649  0.04160  0.14380  Biso   1.000  Zr
  Zr3      1.0000 0.63785  0.04251  0.64755  Biso   1.000  Zr
  Zr4      1.0000 0.13706  0.45639  0.39038  Biso   1.000  Zr
  Zr5      1.0000 0.14112  0.45142  0.89398  Biso   1.000  Zr
  Zr6      1.0000 0.63711  0.45622  0.39469  Biso   1.000  Zr
  Zr7      1.0000 0.63835  0.46236  0.89893  Biso   1.000  Zr
  Zr8      1.0000 0.35283  0.55375  0.10038  Biso   1.000  Zr
  Zr9      1.0000 0.36136  0.54574  0.60489  Biso   1.000  Zr
  Zr10     1.0000 0.87194  0.52768  0.10827  Biso   1.000  Zr
  Zr11     1.0000 0.85961  0.53794  0.60702  Biso   1.000  Zr
  Zr12     1.0000 0.35947  0.96006  0.35030  Biso   1.000  Zr
  Zr13     1.0000 0.36066  0.97408  0.85732  Biso   1.000  Zr
  Zr14     1.0000 0.85746  0.95294  0.35625  Biso   1.000  Zr
  Zr15     1.0000 0.86381  0.95294  0.85842  Biso   1.000  Zr
  O1       1.0000 0.04711  0.29632  0.08299  Biso   1.000  O
  O2       1.0000 0.02940  0.31005  0.56639  Biso   1.000  O
  O3       1.0000 0.53153  0.33090  0.07611  Biso   1.000  O
  O4       1.0000 0.53330  0.33008  0.57467  Biso   1.000  O
  O5       1.0000 0.03442  0.15929  0.32027  Biso   1.000  O
  O6       1.0000 0.03356  0.17121  0.82383  Biso   1.000  O
  O7       1.0000 0.53075  0.17177  0.32539  Biso   1.000  O
  O8       1.0000 0.53531  0.18087  0.82423  Biso   1.000  O
  O9       1.0000 0.46632  0.82319  0.17633  Biso   1.000  O
  O10      1.0000 0.46647  0.83168  0.67428  Biso   1.000  O
  O11      1.0000 0.97269  0.83001  0.17541  Biso   1.000  O
  O12      1.0000 0.96990  0.81148  0.67874  Biso   1.000  O
  O13      1.0000 0.46509  0.67340  0.42302  Biso   1.000  O
  O14      1.0000 0.46996  0.69365  0.92776  Biso   1.000  O
  O15      1.0000 0.96428  0.66617  0.42530  Biso   1.000  O
  O16      1.0000 0.96908  0.66194  0.93202  Biso   1.000  O
  O17      1.0000 0.26275  0.24505  0.22707  Biso   1.000  O
  O18      1.0000 0.27264  0.25285  0.73090  Biso   1.000  O
  O19      1.0000 0.77392  0.25016  0.24106  Biso   1.000  O
  O20      1.0000 0.77777  0.25442  0.74171  Biso   1.000  O
  O21      1.0000 0.27550  0.24692  0.48290  Biso   1.000  O
  O22      1.0000 0.29637  0.29948  0.96700  Biso   1.000  O
  O23      1.0000 0.77523  0.23950  0.49047  Biso   1.000  O
  O24      1.0000 0.77813  0.24269  0.99247  Biso   1.000  O
  O25      1.0000 0.22116  0.81524  0.02025  Biso   1.000  O
  O26      1.0000 0.22242  0.75444  0.50671  Biso   1.000  O
  O27      1.0000 0.72901  0.75367  0.01334  Biso   1.000  O
  O28      1.0000 0.72244  0.75269  0.51170  Biso   1.000  O
  O29      1.0000 0.21256  0.75327  0.25702  Biso   1.000  O
  O30      1.0000 0.22643  0.74151  0.76290  Biso   1.000  O
  O31      1.0000 0.73110  0.73681  0.25973  Biso   1.000  O
  O32      1.0000 0.72581  0.74486  0.76282  Biso   1.000  O
