data_image0
_cell_length_a       5.00838
_cell_length_b       10.3826
_cell_length_c       10.0397
_cell_angle_alpha    89.7279
_cell_angle_beta     89.8237
_cell_angle_gamma    90.0161

_symmetry_space_group_name_H-M    "P 1"
_symmetry_int_tables_number       1

loop_
  _symmetry_equiv_pos_as_xyz
  'x, y, z'

loop_
  _atom_site_label
  _atom_site_occupancy
  _atom_site_fract_x
  _atom_site_fract_y
  _atom_site_fract_z
  _atom_site_thermal_displace_type
  _atom_site_B_iso_or_equiv
  _atom_site_type_symbol
  Os1      1.0000 0.27437  0.02073  0.11923  Biso   1.000  Os
  Zr1      1.0000 0.26897  0.01515  0.62560  Biso   1.000  Zr
  Zr2      1.0000 0.27142  0.51649  0.12697  Biso   1.000  Zr
  Zr3      1.0000 0.26693  0.51609  0.62466  Biso   1.000  Zr
  Zr4      1.0000 0.26488  0.23295  0.37491  Biso   1.000  Zr
  Zr5      1.0000 0.26876  0.23374  0.87770  Biso   1.000  Zr
  Zr6      1.0000 0.26887  0.73783  0.37264  Biso   1.000  Zr
  Zr7      1.0000 0.26541  0.73310  0.87602  Biso   1.000  Zr
  Zr8      1.0000 0.73533  0.26435  0.12596  Biso   1.000  Zr
  Zr9      1.0000 0.73270  0.26491  0.62609  Biso   1.000  Zr
  Zr10     1.0000 0.73564  0.77006  0.12477  Biso   1.000  Zr
  Zr11     1.0000 0.73260  0.76626  0.62459  Biso   1.000  Zr
  Zr12     1.0000 0.73319  0.48526  0.37607  Biso   1.000  Zr
  Zr13     1.0000 0.73110  0.48432  0.87551  Biso   1.000  Zr
  Zr14     1.0000 0.73971  0.98699  0.37007  Biso   1.000  Zr
  Zr15     1.0000 0.73119  0.98256  0.87685  Biso   1.000  Zr
  O1       1.0000 0.06499  0.17442  0.19906  Biso   1.000  O
  O2       1.0000 0.06633  0.18074  0.70273  Biso   1.000  O
  O3       1.0000 0.07245  0.68210  0.19316  Biso   1.000  O
  O4       1.0000 0.06974  0.68351  0.69451  Biso   1.000  O
  O5       1.0000 0.06485  0.06897  0.45199  Biso   1.000  O
  O6       1.0000 0.06816  0.06493  0.96158  Biso   1.000  O
  O7       1.0000 0.07139  0.56853  0.44375  Biso   1.000  O
  O8       1.0000 0.07238  0.56373  0.94450  Biso   1.000  O
  O9       1.0000 0.93477  0.42963  0.19615  Biso   1.000  O
  O10      1.0000 0.92775  0.43310  0.69438  Biso   1.000  O
  O11      1.0000 0.94659  0.93198  0.19164  Biso   1.000  O
  O12      1.0000 0.93135  0.93302  0.69703  Biso   1.000  O
  O13      1.0000 0.93084  0.31756  0.44650  Biso   1.000  O
  O14      1.0000 0.92532  0.31337  0.94454  Biso   1.000  O
  O15      1.0000 0.93010  0.81821  0.44329  Biso   1.000  O
  O16      1.0000 0.91844  0.81388  0.94111  Biso   1.000  O
  O17      1.0000 0.52697  0.11583  0.24370  Biso   1.000  O
  O18      1.0000 0.53828  0.11655  0.74956  Biso   1.000  O
  O19      1.0000 0.54326  0.62021  0.24904  Biso   1.000  O
  O20      1.0000 0.53766  0.61662  0.74858  Biso   1.000  O
  O21      1.0000 0.53971  0.13428  0.49637  Biso   1.000  O
  O22      1.0000 0.53971  0.12726  0.00012  Biso   1.000  O
  O23      1.0000 0.53809  0.63465  0.49819  Biso   1.000  O
  O24      1.0000 0.54080  0.63239  0.99886  Biso   1.000  O
  O25      1.0000 0.46131  0.38357  0.49946  Biso   1.000  O
  O26      1.0000 0.45975  0.38065  0.99998  Biso   1.000  O
  O27      1.0000 0.46422  0.88512  0.49635  Biso   1.000  O
  O28      1.0000 0.44567  0.88364  0.99996  Biso   1.000  O
  O29      1.0000 0.46458  0.36723  0.24970  Biso   1.000  O
  O30      1.0000 0.45949  0.36586  0.74987  Biso   1.000  O
  O31      1.0000 0.45868  0.87527  0.24399  Biso   1.000  O
  O32      1.0000 0.46200  0.86640  0.74913  Biso   1.000  O
