data_image0
_cell_length_a       10.2214
_cell_length_b       10.4948
_cell_length_c       5.24464
_cell_angle_alpha    90.2268
_cell_angle_beta     80.1603
_cell_angle_gamma    90.3224

_symmetry_space_group_name_H-M    "P 1"
_symmetry_int_tables_number       1

loop_
  _symmetry_equiv_pos_as_xyz
  'x, y, z'

loop_
  _atom_site_label
  _atom_site_occupancy
  _atom_site_fract_x
  _atom_site_fract_y
  _atom_site_fract_z
  _atom_site_thermal_displace_type
  _atom_site_B_iso_or_equiv
  _atom_site_type_symbol
  Zr1      1.0000 0.13504  0.01888  0.29209  Biso   1.000  Zr
  Zr2      1.0000 0.14195  0.22915  0.78798  Biso   1.000  Zr
  Zr3      1.0000 0.35667  0.27108  0.21472  Biso   1.000  Zr
  Zr4      1.0000 0.34832  0.49070  0.69901  Biso   1.000  Zr
  O1       1.0000 0.03906  0.17323  0.16545  Biso   1.000  O
  O2       1.0000 0.03424  0.07862  0.66584  Biso   1.000  O
  O3       1.0000 0.46102  0.42652  0.34140  Biso   1.000  O
  O4       1.0000 0.48517  0.37153  0.86632  Biso   1.000  O
  O5       1.0000 0.27262  0.12379  0.47715  Biso   1.000  O
  O6       1.0000 0.27106  0.11231  0.98574  Biso   1.000  O
  O7       1.0000 0.22502  0.38098  0.01193  Biso   1.000  O
  O8       1.0000 0.20989  0.37544  0.50546  Biso   1.000  O
  Zr5      1.0000 0.13381  0.52212  0.28547  Biso   1.000  Zr
  Zr6      1.0000 0.13258  0.73138  0.79276  Biso   1.000  Zr
  Zr7      1.0000 0.35912  0.77003  0.20726  Biso   1.000  Zr
  Zr8      1.0000 0.36063  0.97066  0.71282  Biso   1.000  Zr
  O9       1.0000 0.03019  0.67196  0.16426  Biso   1.000  O
  O10      1.0000 0.03412  0.57979  0.66389  Biso   1.000  O
  O11      1.0000 0.46040  0.91945  0.33167  Biso   1.000  O
  O12      1.0000 0.45726  0.82089  0.83566  Biso   1.000  O
  O13      1.0000 0.27004  0.63096  0.47866  Biso   1.000  O
  O14      1.0000 0.26795  0.62335  0.98184  Biso   1.000  O
  O15      1.0000 0.22092  0.87568  0.02108  Biso   1.000  O
  O16      1.0000 0.22143  0.86921  0.51945  Biso   1.000  O
  Zr9      1.0000 0.63536  0.01775  0.29666  Biso   1.000  Zr
  Zr10     1.0000 0.65499  0.22842  0.80329  Biso   1.000  Zr
  Zr11     1.0000 0.86470  0.27013  0.21659  Biso   1.000  Zr
  Zr12     1.0000 0.86205  0.47778  0.71527  Biso   1.000  Zr
  O17      1.0000 0.53203  0.16989  0.15644  Biso   1.000  O
  O18      1.0000 0.54583  0.05052  0.67713  Biso   1.000  O
  O19      1.0000 0.96063  0.42359  0.33579  Biso   1.000  O
  O20      1.0000 0.96399  0.32720  0.83659  Biso   1.000  O
  O21      1.0000 0.77668  0.12892  0.48841  Biso   1.000  O
  O22      1.0000 0.77894  0.11618  0.99387  Biso   1.000  O
  O23      1.0000 0.72874  0.37673  0.03012  Biso   1.000  O
  O24      1.0000 0.72624  0.37097  0.52702  Biso   1.000  O
  Zr13     1.0000 0.63793  0.52278  0.29426  Biso   1.000  Zr
  Zr14     1.0000 0.63620  0.72673  0.79079  Biso   1.000  Zr
  Zr15     1.0000 0.85668  0.77056  0.21172  Biso   1.000  Zr
  Zr16     1.0000 0.85939  0.97714  0.71139  Biso   1.000  Zr
  O25      1.0000 0.53303  0.66801  0.15763  Biso   1.000  O
  O26      1.0000 0.52873  0.58896  0.64815  Biso   1.000  O
  O27      1.0000 0.96034  0.92024  0.33758  Biso   1.000  O
  O28      1.0000 0.95951  0.82891  0.83818  Biso   1.000  O
  O29      1.0000 0.77370  0.62753  0.48527  Biso   1.000  O
  O30      1.0000 0.77235  0.61922  0.98333  Biso   1.000  O
  O31      1.0000 0.72052  0.87728  0.02094  Biso   1.000  O
  O32      1.0000 0.72393  0.86742  0.51769  Biso   1.000  O
  P1       1.0000 0.44030  0.25949  0.66796  Biso   1.000  P
