data_image0
_cell_length_a       5.02637
_cell_length_b       10.4583
_cell_length_c       10.0925
_cell_angle_alpha    90.0598
_cell_angle_beta     89.899
_cell_angle_gamma    89.9364

_symmetry_space_group_name_H-M    "P 1"
_symmetry_int_tables_number       1

loop_
  _symmetry_equiv_pos_as_xyz
  'x, y, z'

loop_
  _atom_site_label
  _atom_site_occupancy
  _atom_site_fract_x
  _atom_site_fract_y
  _atom_site_fract_z
  _atom_site_thermal_displace_type
  _atom_site_B_iso_or_equiv
  _atom_site_type_symbol
  Pb1      1.0000 0.26131  0.01553  0.12230  Biso   1.000  Pb
  Zr1      1.0000 0.26657  0.01621  0.62629  Biso   1.000  Zr
  Zr2      1.0000 0.26776  0.51538  0.12643  Biso   1.000  Zr
  Zr3      1.0000 0.26718  0.51602  0.62530  Biso   1.000  Zr
  Zr4      1.0000 0.26880  0.23423  0.37724  Biso   1.000  Zr
  Zr5      1.0000 0.26854  0.23685  0.87304  Biso   1.000  Zr
  Zr6      1.0000 0.26820  0.73419  0.37668  Biso   1.000  Zr
  Zr7      1.0000 0.26505  0.73322  0.87557  Biso   1.000  Zr
  Zr8      1.0000 0.72937  0.26777  0.12572  Biso   1.000  Zr
  Zr9      1.0000 0.73362  0.26616  0.62478  Biso   1.000  Zr
  Zr10     1.0000 0.73439  0.76166  0.12549  Biso   1.000  Zr
  Zr11     1.0000 0.73153  0.76550  0.62562  Biso   1.000  Zr
  Zr12     1.0000 0.73270  0.48430  0.37599  Biso   1.000  Zr
  Zr13     1.0000 0.73263  0.48458  0.87534  Biso   1.000  Zr
  Zr14     1.0000 0.73159  0.98420  0.37830  Biso   1.000  Zr
  Zr15     1.0000 0.73067  0.98377  0.87281  Biso   1.000  Zr
  O1       1.0000 0.06797  0.18917  0.19643  Biso   1.000  O
  O2       1.0000 0.07479  0.18621  0.69110  Biso   1.000  O
  O3       1.0000 0.07405  0.68365  0.19560  Biso   1.000  O
  O4       1.0000 0.06917  0.68334  0.69532  Biso   1.000  O
  O5       1.0000 0.07203  0.06593  0.44438  Biso   1.000  O
  O6       1.0000 0.07261  0.06693  0.93048  Biso   1.000  O
  O7       1.0000 0.07088  0.56578  0.44522  Biso   1.000  O
  O8       1.0000 0.06769  0.56712  0.94633  Biso   1.000  O
  O9       1.0000 0.92829  0.43456  0.19477  Biso   1.000  O
  O10      1.0000 0.93063  0.43385  0.69531  Biso   1.000  O
  O11      1.0000 0.91619  0.93186  0.19505  Biso   1.000  O
  O12      1.0000 0.92607  0.93389  0.69201  Biso   1.000  O
  O13      1.0000 0.92835  0.31660  0.44437  Biso   1.000  O
  O14      1.0000 0.92988  0.31704  0.94442  Biso   1.000  O
  O15      1.0000 0.93023  0.81598  0.44616  Biso   1.000  O
  O16      1.0000 0.92717  0.81663  0.94406  Biso   1.000  O
  O17      1.0000 0.54276  0.11943  0.25197  Biso   1.000  O
  O18      1.0000 0.54112  0.11769  0.74749  Biso   1.000  O
  O19      1.0000 0.53960  0.61471  0.24915  Biso   1.000  O
  O20      1.0000 0.53737  0.61671  0.74907  Biso   1.000  O
  O21      1.0000 0.53959  0.13306  0.49976  Biso   1.000  O
  O22      1.0000 0.54514  0.13481  0.99585  Biso   1.000  O
  O23      1.0000 0.53881  0.63324  0.49929  Biso   1.000  O
  O24      1.0000 0.53680  0.63207  0.99863  Biso   1.000  O
  O25      1.0000 0.46138  0.38326  0.49936  Biso   1.000  O
  O26      1.0000 0.46071  0.38387  0.99860  Biso   1.000  O
  O27      1.0000 0.46032  0.88337  0.50078  Biso   1.000  O
  O28      1.0000 0.46312  0.87918  0.99874  Biso   1.000  O
  O29      1.0000 0.46002  0.36766  0.24982  Biso   1.000  O
  O30      1.0000 0.46298  0.36777  0.74834  Biso   1.000  O
  O31      1.0000 0.47258  0.86089  0.25301  Biso   1.000  O
  O32      1.0000 0.45935  0.86660  0.74950  Biso   1.000  O
