data_image0
_cell_length_a       10.2837
_cell_length_b       10.3891
_cell_length_c       10.5895
_cell_angle_alpha    90.0195
_cell_angle_beta     79.2955
_cell_angle_gamma    89.9833

_symmetry_space_group_name_H-M    "P 1"
_symmetry_int_tables_number       1

loop_
  _symmetry_equiv_pos_as_xyz
  'x, y, z'

loop_
  _atom_site_label
  _atom_site_occupancy
  _atom_site_fract_x
  _atom_site_fract_y
  _atom_site_fract_z
  _atom_site_thermal_displace_type
  _atom_site_B_iso_or_equiv
  _atom_site_type_symbol
  Zr1      1.0000 0.13014  0.01920  0.14429  Biso   1.000  Zr
  Zr2      1.0000 0.14011  0.22686  0.39085  Biso   1.000  Zr
  Zr3      1.0000 0.33506  0.26761  0.08805  Biso   1.000  Zr
  Zr4      1.0000 0.35510  0.48546  0.35157  Biso   1.000  Zr
  O1       1.0000 0.03007  0.16829  0.07787  Biso   1.000  O
  O2       1.0000 0.03020  0.08083  0.33147  Biso   1.000  O
  O3       1.0000 0.45494  0.44518  0.15455  Biso   1.000  O
  O4       1.0000 0.48128  0.35633  0.44302  Biso   1.000  O
  O5       1.0000 0.26164  0.12108  0.23195  Biso   1.000  O
  O6       1.0000 0.27983  0.12252  0.48435  Biso   1.000  O
  O7       1.0000 0.21195  0.38423  0.00066  Biso   1.000  O
  O8       1.0000 0.21335  0.37375  0.25327  Biso   1.000  O
  Zr5      1.0000 0.13884  0.02107  0.64385  Biso   1.000  Zr
  Zr6      1.0000 0.12951  0.22932  0.88955  Biso   1.000  Zr
  Zr7      1.0000 0.36261  0.27468  0.60462  Biso   1.000  Zr
  Zr8      1.0000 0.35913  0.47976  0.85460  Biso   1.000  Zr
  O9       1.0000 0.03927  0.16761  0.57861  Biso   1.000  O
  O10      1.0000 0.02935  0.08399  0.82615  Biso   1.000  O
  O11      1.0000 0.46784  0.41407  0.68099  Biso   1.000  O
  O12      1.0000 0.45970  0.33221  0.92222  Biso   1.000  O
  O13      1.0000 0.27208  0.12795  0.73579  Biso   1.000  O
  O14      1.0000 0.26338  0.12194  0.98115  Biso   1.000  O
  O15      1.0000 0.22737  0.37799  0.50509  Biso   1.000  O
  O16      1.0000 0.22368  0.37150  0.75562  Biso   1.000  O
  Zr9      1.0000 0.13772  0.52433  0.14480  Biso   1.000  Zr
  Zr10     1.0000 0.13746  0.73023  0.39691  Biso   1.000  Zr
  Zr11     1.0000 0.35941  0.77463  0.10465  Biso   1.000  Zr
  Zr12     1.0000 0.36156  0.97148  0.35693  Biso   1.000  Zr
  O17      1.0000 0.03185  0.66767  0.07741  Biso   1.000  O
  O18      1.0000 0.03473  0.58775  0.32677  Biso   1.000  O
  O19      1.0000 0.46547  0.91634  0.17467  Biso   1.000  O
  O20      1.0000 0.45973  0.82128  0.42252  Biso   1.000  O
  O21      1.0000 0.27378  0.63129  0.24202  Biso   1.000  O
  O22      1.0000 0.27179  0.62137  0.49113  Biso   1.000  O
  O23      1.0000 0.22372  0.87947  0.00964  Biso   1.000  O
  O24      1.0000 0.22238  0.86977  0.25987  Biso   1.000  O
  Zr13     1.0000 0.13792  0.52172  0.64595  Biso   1.000  Zr
  Zr14     1.0000 0.13657  0.72844  0.89637  Biso   1.000  Zr
  Zr15     1.0000 0.36100  0.76944  0.60582  Biso   1.000  Zr
  Zr16     1.0000 0.35896  0.97836  0.85181  Biso   1.000  Zr
  O25      1.0000 0.03103  0.66451  0.57936  Biso   1.000  O
  O26      1.0000 0.03207  0.58403  0.82897  Biso   1.000  O
  O27      1.0000 0.46532  0.91479  0.67041  Biso   1.000  O
  O28      1.0000 0.46499  0.83692  0.92143  Biso   1.000  O
  O29      1.0000 0.27343  0.62709  0.74055  Biso   1.000  O
  O30      1.0000 0.27495  0.62463  0.99116  Biso   1.000  O
  O31      1.0000 0.22342  0.87781  0.51143  Biso   1.000  O
  O32      1.0000 0.22353  0.87097  0.76016  Biso   1.000  O
  Zr17     1.0000 0.64189  0.01456  0.15113  Biso   1.000  Zr
  Zr18     1.0000 0.66194  0.23242  0.41466  Biso   1.000  Zr
  Zr19     1.0000 0.85688  0.27316  0.11185  Biso   1.000  Zr
  Zr20     1.0000 0.86685  0.48082  0.35841  Biso   1.000  Zr
  O33      1.0000 0.51571  0.14371  0.05970  Biso   1.000  O
  O34      1.0000 0.54205  0.05483  0.34815  Biso   1.000  O
  O35      1.0000 0.96679  0.41919  0.17123  Biso   1.000  O
  O36      1.0000 0.96693  0.33173  0.42484  Biso   1.000  O
  O37      1.0000 0.78364  0.12627  0.24943  Biso   1.000  O
  O38      1.0000 0.78505  0.11580  0.50204  Biso   1.000  O
  O39      1.0000 0.71716  0.37750  0.01835  Biso   1.000  O
  O40      1.0000 0.73535  0.37894  0.27076  Biso   1.000  O
  Zr21     1.0000 0.63787  0.02027  0.64811  Biso   1.000  Zr
  Zr22     1.0000 0.63438  0.22535  0.89809  Biso   1.000  Zr
  Zr23     1.0000 0.86749  0.27070  0.61315  Biso   1.000  Zr
  Zr24     1.0000 0.85815  0.47895  0.85885  Biso   1.000  Zr
  O41      1.0000 0.53729  0.16781  0.58047  Biso   1.000  O
  O42      1.0000 0.52915  0.08596  0.82171  Biso   1.000  O
  O43      1.0000 0.96765  0.41603  0.67655  Biso   1.000  O
  O44      1.0000 0.95772  0.33242  0.92410  Biso   1.000  O
  O45      1.0000 0.77332  0.12853  0.74709  Biso   1.000  O
  O46      1.0000 0.76962  0.12203  0.99761  Biso   1.000  O
  O47      1.0000 0.73362  0.37809  0.52156  Biso   1.000  O
  O48      1.0000 0.72492  0.37207  0.76692  Biso   1.000  O
  Zr25     1.0000 0.63543  0.52854  0.14577  Biso   1.000  Zr
  Zr26     1.0000 0.63758  0.72539  0.39805  Biso   1.000  Zr
  Zr27     1.0000 0.85953  0.76979  0.10580  Biso   1.000  Zr
  Zr28     1.0000 0.85928  0.97570  0.35790  Biso   1.000  Zr
  O49      1.0000 0.53725  0.67874  0.08018  Biso   1.000  O
  O50      1.0000 0.53152  0.58368  0.32803  Biso   1.000  O
  O51      1.0000 0.96226  0.91228  0.17593  Biso   1.000  O
  O52      1.0000 0.96514  0.83236  0.42529  Biso   1.000  O
  O53      1.0000 0.77461  0.63025  0.24283  Biso   1.000  O
  O54      1.0000 0.77327  0.62056  0.49307  Biso   1.000  O
  O55      1.0000 0.72520  0.87866  0.01157  Biso   1.000  O
  O56      1.0000 0.72322  0.86873  0.26069  Biso   1.000  O
  Zr29     1.0000 0.63803  0.52167  0.65090  Biso   1.000  Zr
  Zr30     1.0000 0.63599  0.73058  0.89689  Biso   1.000  Zr
  Zr31     1.0000 0.86042  0.77159  0.60633  Biso   1.000  Zr
  Zr32     1.0000 0.85907  0.97831  0.85675  Biso   1.000  Zr
  O57      1.0000 0.53200  0.66310  0.58127  Biso   1.000  O
  O58      1.0000 0.53167  0.58524  0.83229  Biso   1.000  O
  O59      1.0000 0.96492  0.91600  0.67373  Biso   1.000  O
  O60      1.0000 0.96596  0.83552  0.92335  Biso   1.000  O
  O61      1.0000 0.77346  0.62906  0.74254  Biso   1.000  O
  O62      1.0000 0.77357  0.62222  0.99127  Biso   1.000  O
  O63      1.0000 0.72205  0.87540  0.51154  Biso   1.000  O
  O64      1.0000 0.72356  0.87294  0.76215  Biso   1.000  O
  Pb1      1.0000 0.49848  0.25001  0.25137  Biso   1.000  Pb
