data_image0
_cell_length_a       10.2457
_cell_length_b       5.20928
_cell_length_c       10.5663
_cell_angle_alpha    90.5293
_cell_angle_beta     79.933
_cell_angle_gamma    90.112

_symmetry_space_group_name_H-M    "P 1"
_symmetry_int_tables_number       1

loop_
  _symmetry_equiv_pos_as_xyz
  'x, y, z'

loop_
  _atom_site_label
  _atom_site_occupancy
  _atom_site_fract_x
  _atom_site_fract_y
  _atom_site_fract_z
  _atom_site_thermal_displace_type
  _atom_site_B_iso_or_equiv
  _atom_site_type_symbol
  Zr1      1.0000 0.13432  0.04948  0.14481  Biso   1.000  Zr
  Zr2      1.0000 0.13769  0.45815  0.39645  Biso   1.000  Zr
  Zr3      1.0000 0.35574  0.55739  0.09745  Biso   1.000  Zr
  Zr4      1.0000 0.35780  0.93745  0.35498  Biso   1.000  Zr
  O1       1.0000 0.03210  0.34308  0.07791  Biso   1.000  O
  O2       1.0000 0.03132  0.16942  0.32816  Biso   1.000  O
  O3       1.0000 0.45879  0.86173  0.16457  Biso   1.000  O
  O4       1.0000 0.47948  0.69723  0.43831  Biso   1.000  O
  O5       1.0000 0.27097  0.26331  0.23796  Biso   1.000  O
  O6       1.0000 0.26652  0.21907  0.49488  Biso   1.000  O
  O7       1.0000 0.22024  0.76876  0.00608  Biso   1.000  O
  O8       1.0000 0.21229  0.75542  0.25646  Biso   1.000  O
  Zr5      1.0000 0.13591  0.03947  0.64690  Biso   1.000  Zr
  Zr6      1.0000 0.13464  0.46032  0.89499  Biso   1.000  Zr
  Zr7      1.0000 0.36050  0.54128  0.60896  Biso   1.000  Zr
  Zr8      1.0000 0.35858  0.96300  0.85478  Biso   1.000  Zr
  O9       1.0000 0.03251  0.33464  0.58049  Biso   1.000  O
  O10      1.0000 0.03201  0.16630  0.82951  Biso   1.000  O
  O11      1.0000 0.46523  0.82934  0.67681  Biso   1.000  O
  O12      1.0000 0.46394  0.67246  0.92046  Biso   1.000  O
  O13      1.0000 0.27343  0.25746  0.74124  Biso   1.000  O
  O14      1.0000 0.27223  0.25259  0.98913  Biso   1.000  O
  O15      1.0000 0.22453  0.74262  0.51265  Biso   1.000  O
  O16      1.0000 0.22320  0.74323  0.75977  Biso   1.000  O
  Zr9      1.0000 0.63741  0.04548  0.14602  Biso   1.000  Zr
  Zr10     1.0000 0.65076  0.45590  0.40145  Biso   1.000  Zr
  Zr11     1.0000 0.85874  0.54529  0.10522  Biso   1.000  Zr
  Zr12     1.0000 0.86226  0.95516  0.35468  Biso   1.000  Zr
  O17      1.0000 0.53185  0.34345  0.07848  Biso   1.000  O
  O18      1.0000 0.55122  0.12223  0.33798  Biso   1.000  O
  O19      1.0000 0.96293  0.84131  0.16923  Biso   1.000  O
  O20      1.0000 0.96477  0.66597  0.42263  Biso   1.000  O
  O21      1.0000 0.77810  0.26004  0.24054  Biso   1.000  O
  O22      1.0000 0.77820  0.23745  0.49392  Biso   1.000  O
  O23      1.0000 0.72228  0.76154  0.01199  Biso   1.000  O
  O24      1.0000 0.72641  0.73939  0.26090  Biso   1.000  O
  Zr13     1.0000 0.63709  0.04207  0.64759  Biso   1.000  Zr
  Zr14     1.0000 0.63637  0.46007  0.89705  Biso   1.000  Zr
  Zr15     1.0000 0.86207  0.54203  0.60808  Biso   1.000  Zr
  Zr16     1.0000 0.85850  0.95933  0.85661  Biso   1.000  Zr
  O25      1.0000 0.53359  0.32918  0.57884  Biso   1.000  O
  O26      1.0000 0.53155  0.17125  0.82881  Biso   1.000  O
  O27      1.0000 0.96309  0.83648  0.67274  Biso   1.000  O
  O28      1.0000 0.96196  0.66693  0.92023  Biso   1.000  O
  O29      1.0000 0.77285  0.25843  0.74246  Biso   1.000  O
  O30      1.0000 0.77251  0.24641  0.99147  Biso   1.000  O
  O31      1.0000 0.72688  0.75362  0.51354  Biso   1.000  O
  O32      1.0000 0.72295  0.74450  0.76266  Biso   1.000  O
  Pd1      1.0000 0.42299  0.43347  0.31817  Biso   1.000  Pd
