data_image0
_cell_length_a       10.0697
_cell_length_b       10.2322
_cell_length_c       10.0698
_cell_angle_alpha    89.9995
_cell_angle_beta     89.1709
_cell_angle_gamma    90.0005

_symmetry_space_group_name_H-M    "P 1"
_symmetry_int_tables_number       1

loop_
  _symmetry_equiv_pos_as_xyz
  'x, y, z'

loop_
  _atom_site_label
  _atom_site_occupancy
  _atom_site_fract_x
  _atom_site_fract_y
  _atom_site_fract_z
  _atom_site_thermal_displace_type
  _atom_site_B_iso_or_equiv
  _atom_site_type_symbol
  Pd1      1.0000 0.12499  0.96400  0.12511  Biso   1.000  Pd
  Zr1      1.0000 0.12500  0.99461  0.62511  Biso   1.000  Zr
  Zr2      1.0000 0.12499  0.50533  0.12510  Biso   1.000  Zr
  Zr3      1.0000 0.12499  0.49914  0.62510  Biso   1.000  Zr
  Zr4      1.0000 0.62500  0.99462  0.12511  Biso   1.000  Zr
  Zr5      1.0000 0.62499  0.00420  0.62511  Biso   1.000  Zr
  Zr6      1.0000 0.62499  0.49913  0.12510  Biso   1.000  Zr
  Zr7      1.0000 0.62499  0.49690  0.62510  Biso   1.000  Zr
  Zr8      1.0000 0.12891  0.25115  0.37211  Biso   1.000  Zr
  Zr9      1.0000 0.12108  0.25115  0.87809  Biso   1.000  Zr
  Zr10     1.0000 0.12938  0.74972  0.38067  Biso   1.000  Zr
  Zr11     1.0000 0.12062  0.74972  0.86954  Biso   1.000  Zr
  Zr12     1.0000 0.62859  0.24944  0.37270  Biso   1.000  Zr
  Zr13     1.0000 0.62139  0.24944  0.87750  Biso   1.000  Zr
  Zr14     1.0000 0.62737  0.74993  0.37817  Biso   1.000  Zr
  Zr15     1.0000 0.62263  0.74993  0.87204  Biso   1.000  Zr
  Zr16     1.0000 0.37200  0.25114  0.12901  Biso   1.000  Zr
  Zr17     1.0000 0.37259  0.24944  0.62871  Biso   1.000  Zr
  Zr18     1.0000 0.38056  0.74972  0.12948  Biso   1.000  Zr
  Zr19     1.0000 0.37806  0.74993  0.62748  Biso   1.000  Zr
  Zr20     1.0000 0.87799  0.25115  0.12119  Biso   1.000  Zr
  Zr21     1.0000 0.87739  0.24944  0.62150  Biso   1.000  Zr
  Zr22     1.0000 0.86943  0.74972  0.12073  Biso   1.000  Zr
  Zr23     1.0000 0.87194  0.74993  0.62273  Biso   1.000  Zr
  Zr24     1.0000 0.38094  0.00669  0.38105  Biso   1.000  Zr
  Zr25     1.0000 0.36818  0.00312  0.88193  Biso   1.000  Zr
  Zr26     1.0000 0.37617  0.49819  0.37628  Biso   1.000  Zr
  Zr27     1.0000 0.37498  0.49771  0.87511  Biso   1.000  Zr
  Zr28     1.0000 0.88181  0.00312  0.36829  Biso   1.000  Zr
  Zr29     1.0000 0.86905  0.00669  0.86916  Biso   1.000  Zr
  Zr30     1.0000 0.87501  0.49772  0.37509  Biso   1.000  Zr
  Zr31     1.0000 0.87381  0.49819  0.87392  Biso   1.000  Zr
  O1       1.0000 0.97305  0.15933  0.97316  Biso   1.000  O
  O2       1.0000 0.99721  0.14619  0.48554  Biso   1.000  O
  O3       1.0000 0.00098  0.65119  0.00110  Biso   1.000  O
  O4       1.0000 0.00064  0.64569  0.50151  Biso   1.000  O
  O5       1.0000 0.48543  0.14619  0.99732  Biso   1.000  O
  O6       1.0000 0.50222  0.14878  0.50233  Biso   1.000  O
  O7       1.0000 0.50140  0.64569  0.00075  Biso   1.000  O
  O8       1.0000 0.50003  0.64532  0.50014  Biso   1.000  O
  O9       1.0000 0.01804  0.09344  0.23205  Biso   1.000  O
  O10      1.0000 0.99634  0.10331  0.73473  Biso   1.000  O
  O11      1.0000 0.99840  0.60250  0.25169  Biso   1.000  O
  O12      1.0000 0.00075  0.60402  0.75179  Biso   1.000  O
  O13      1.0000 0.51536  0.10331  0.25376  Biso   1.000  O
  O14      1.0000 0.49798  0.10271  0.75211  Biso   1.000  O
  O15      1.0000 0.49831  0.60402  0.24935  Biso   1.000  O
  O16      1.0000 0.50017  0.60377  0.74993  Biso   1.000  O
  O17      1.0000 0.99913  0.34946  0.25097  Biso   1.000  O
  O18      1.0000 0.99945  0.35375  0.74958  Biso   1.000  O
  O19      1.0000 0.01149  0.84746  0.23860  Biso   1.000  O
  O20      1.0000 0.99470  0.85278  0.74721  Biso   1.000  O
  O21      1.0000 0.50051  0.35375  0.25064  Biso   1.000  O
  O22      1.0000 0.49967  0.35335  0.75042  Biso   1.000  O
  O23      1.0000 0.50288  0.85278  0.25541  Biso   1.000  O
  O24      1.0000 0.49270  0.85422  0.75740  Biso   1.000  O
  O25      1.0000 0.00143  0.40248  0.00155  Biso   1.000  O
  O26      1.0000 0.99988  0.39661  0.50102  Biso   1.000  O
  O27      1.0000 0.99270  0.90879  0.99279  Biso   1.000  O
  O28      1.0000 0.00623  0.89566  0.49316  Biso   1.000  O
  O29      1.0000 0.50091  0.39661  0.99998  Biso   1.000  O
  O30      1.0000 0.50026  0.39633  0.50037  Biso   1.000  O
  O31      1.0000 0.49305  0.89566  0.00634  Biso   1.000  O
  O32      1.0000 0.50508  0.89549  0.50518  Biso   1.000  O
  O33      1.0000 0.27694  0.15933  0.27705  Biso   1.000  O
  O34      1.0000 0.25277  0.14618  0.76466  Biso   1.000  O
  O35      1.0000 0.24899  0.65119  0.24910  Biso   1.000  O
  O36      1.0000 0.24935  0.64568  0.74869  Biso   1.000  O
  O37      1.0000 0.76455  0.14618  0.25287  Biso   1.000  O
  O38      1.0000 0.74776  0.14878  0.74787  Biso   1.000  O
  O39      1.0000 0.74858  0.64568  0.24946  Biso   1.000  O
  O40      1.0000 0.74995  0.64532  0.75006  Biso   1.000  O
  O41      1.0000 0.23195  0.09344  0.01816  Biso   1.000  O
  O42      1.0000 0.25365  0.10331  0.51547  Biso   1.000  O
  O43      1.0000 0.25158  0.60250  0.99851  Biso   1.000  O
  O44      1.0000 0.24924  0.60402  0.49841  Biso   1.000  O
  O45      1.0000 0.73462  0.10331  0.99644  Biso   1.000  O
  O46      1.0000 0.75200  0.10271  0.49809  Biso   1.000  O
  O47      1.0000 0.75168  0.60402  0.00085  Biso   1.000  O
  O48      1.0000 0.74982  0.60377  0.50028  Biso   1.000  O
  O49      1.0000 0.25086  0.34946  0.99923  Biso   1.000  O
  O50      1.0000 0.25054  0.35375  0.50062  Biso   1.000  O
  O51      1.0000 0.23849  0.84746  0.01161  Biso   1.000  O
  O52      1.0000 0.25530  0.85278  0.50300  Biso   1.000  O
  O53      1.0000 0.74947  0.35375  0.99956  Biso   1.000  O
  O54      1.0000 0.75031  0.35334  0.49979  Biso   1.000  O
  O55      1.0000 0.74711  0.85278  0.99480  Biso   1.000  O
  O56      1.0000 0.75730  0.85422  0.49281  Biso   1.000  O
  O57      1.0000 0.24855  0.40248  0.24866  Biso   1.000  O
  O58      1.0000 0.25011  0.39660  0.74918  Biso   1.000  O
  O59      1.0000 0.25729  0.90879  0.25742  Biso   1.000  O
  O60      1.0000 0.24377  0.89565  0.75705  Biso   1.000  O
  O61      1.0000 0.74907  0.39660  0.25022  Biso   1.000  O
  O62      1.0000 0.74972  0.39634  0.74984  Biso   1.000  O
  O63      1.0000 0.75693  0.89565  0.24388  Biso   1.000  O
  O64      1.0000 0.74492  0.89549  0.74503  Biso   1.000  O
