data_image0
_cell_length_a       10.0158
_cell_length_b       10.4363
_cell_length_c       5.03676
_cell_angle_alpha    90.4203
_cell_angle_beta     89.0959
_cell_angle_gamma    90.3588

_symmetry_space_group_name_H-M    "P 1"
_symmetry_int_tables_number       1

loop_
  _symmetry_equiv_pos_as_xyz
  'x, y, z'

loop_
  _atom_site_label
  _atom_site_occupancy
  _atom_site_fract_x
  _atom_site_fract_y
  _atom_site_fract_z
  _atom_site_thermal_displace_type
  _atom_site_B_iso_or_equiv
  _atom_site_type_symbol
  Pd1      1.0000 0.12747  0.03950  0.20984  Biso   1.000  Pd
  Zr1      1.0000 0.13359  0.51444  0.25195  Biso   1.000  Zr
  Zr2      1.0000 0.63216  0.01379  0.24518  Biso   1.000  Zr
  Zr3      1.0000 0.63471  0.51822  0.25581  Biso   1.000  Zr
  Zr4      1.0000 0.13253  0.23630  0.74415  Biso   1.000  Zr
  Zr5      1.0000 0.13329  0.73396  0.75835  Biso   1.000  Zr
  Zr6      1.0000 0.63200  0.23300  0.75107  Biso   1.000  Zr
  Zr7      1.0000 0.63430  0.73591  0.75401  Biso   1.000  Zr
  Zr8      1.0000 0.36816  0.26500  0.25354  Biso   1.000  Zr
  Zr9      1.0000 0.36630  0.76462  0.26250  Biso   1.000  Zr
  Zr10     1.0000 0.86099  0.26629  0.24439  Biso   1.000  Zr
  Zr11     1.0000 0.87460  0.76859  0.24289  Biso   1.000  Zr
  Zr12     1.0000 0.36675  0.48585  0.75293  Biso   1.000  Zr
  Zr13     1.0000 0.36183  0.98064  0.75673  Biso   1.000  Zr
  Zr14     1.0000 0.86461  0.48573  0.74959  Biso   1.000  Zr
  Zr15     1.0000 0.86579  0.98477  0.73613  Biso   1.000  Zr
  O1       1.0000 0.03592  0.18719  0.37547  Biso   1.000  O
  O2       1.0000 0.03663  0.68337  0.39258  Biso   1.000  O
  O3       1.0000 0.53234  0.18217  0.39585  Biso   1.000  O
  O4       1.0000 0.53388  0.68162  0.40393  Biso   1.000  O
  O5       1.0000 0.03444  0.06353  0.87589  Biso   1.000  O
  O6       1.0000 0.03265  0.56444  0.89612  Biso   1.000  O
  O7       1.0000 0.53091  0.06875  0.89868  Biso   1.000  O
  O8       1.0000 0.53513  0.56732  0.89718  Biso   1.000  O
  O9       1.0000 0.46561  0.43186  0.39225  Biso   1.000  O
  O10      1.0000 0.47143  0.93041  0.40669  Biso   1.000  O
  O11      1.0000 0.96453  0.43005  0.39062  Biso   1.000  O
  O12      1.0000 0.97427  0.94057  0.37570  Biso   1.000  O
  O13      1.0000 0.46163  0.31537  0.89075  Biso   1.000  O
  O14      1.0000 0.46593  0.81890  0.90638  Biso   1.000  O
  O15      1.0000 0.96170  0.31437  0.88052  Biso   1.000  O
  O16      1.0000 0.96216  0.81705  0.87874  Biso   1.000  O
  O17      1.0000 0.26220  0.10817  0.49820  Biso   1.000  O
  O18      1.0000 0.26729  0.60883  0.50040  Biso   1.000  O
  O19      1.0000 0.76674  0.11727  0.49071  Biso   1.000  O
  O20      1.0000 0.77076  0.61699  0.49955  Biso   1.000  O
  O21      1.0000 0.26463  0.13531  0.99914  Biso   1.000  O
  O22      1.0000 0.26884  0.63553  0.00146  Biso   1.000  O
  O23      1.0000 0.76894  0.13348  0.98947  Biso   1.000  O
  O24      1.0000 0.76872  0.63539  0.00052  Biso   1.000  O
  O25      1.0000 0.22910  0.38348  0.99645  Biso   1.000  O
  O26      1.0000 0.22606  0.89147  0.03395  Biso   1.000  O
  O27      1.0000 0.72919  0.38318  0.99906  Biso   1.000  O
  O28      1.0000 0.73073  0.88485  0.98924  Biso   1.000  O
  O29      1.0000 0.23171  0.36364  0.49693  Biso   1.000  O
  O30      1.0000 0.24765  0.85040  0.53779  Biso   1.000  O
  O31      1.0000 0.72809  0.36735  0.49803  Biso   1.000  O
  O32      1.0000 0.73762  0.86586  0.48893  Biso   1.000  O
