data_image0
_cell_length_a       5.1193
_cell_length_b       10.4588
_cell_length_c       10.1916
_cell_angle_alpha    90.0001
_cell_angle_beta     89.9999
_cell_angle_gamma    89.9998

_symmetry_space_group_name_H-M    "P 1"
_symmetry_int_tables_number       1

loop_
  _symmetry_equiv_pos_as_xyz
  'x, y, z'

loop_
  _atom_site_label
  _atom_site_occupancy
  _atom_site_fract_x
  _atom_site_fract_y
  _atom_site_fract_z
  _atom_site_thermal_displace_type
  _atom_site_B_iso_or_equiv
  _atom_site_type_symbol
  Zr1      1.0000 0.25080  0.96720  0.12540  Biso   1.000  Zr
  Zr2      1.0000 0.25079  0.25008  0.39704  Biso   1.000  Zr
  Zr3      1.0000 0.75079  0.25007  0.12540  Biso   1.000  Zr
  Zr4      1.0000 0.75134  0.00866  0.37569  Biso   1.000  Zr
  O1       1.0000 0.95065  0.15758  0.97217  Biso   1.000  O
  O2       1.0000 0.02031  0.08450  0.24702  Biso   1.000  O
  O3       1.0000 0.95064  0.34257  0.27862  Biso   1.000  O
  O4       1.0000 0.02032  0.41565  0.00377  Biso   1.000  O
  O5       1.0000 0.55093  0.15757  0.27862  Biso   1.000  O
  O6       1.0000 0.48127  0.08451  0.00377  Biso   1.000  O
  O7       1.0000 0.55093  0.34257  0.97218  Biso   1.000  O
  O8       1.0000 0.48126  0.41565  0.24702  Biso   1.000  O
  Zr5      1.0000 0.25079  0.99323  0.62540  Biso   1.000  Zr
  Zr6      1.0000 0.25079  0.25008  0.85375  Biso   1.000  Zr
  Zr7      1.0000 0.75079  0.25007  0.62540  Biso   1.000  Zr
  Zr8      1.0000 0.75024  0.00866  0.87510  Biso   1.000  Zr
  O9       1.0000 0.98278  0.14600  0.49819  Biso   1.000  O
  O10      1.0000 0.01310  0.10242  0.74205  Biso   1.000  O
  O11      1.0000 0.98278  0.35415  0.75260  Biso   1.000  O
  O12      1.0000 0.01309  0.39773  0.50874  Biso   1.000  O
  O13      1.0000 0.51880  0.14600  0.75261  Biso   1.000  O
  O14      1.0000 0.48849  0.10242  0.50875  Biso   1.000  O
  O15      1.0000 0.51880  0.35415  0.49819  Biso   1.000  O
  O16      1.0000 0.48848  0.39773  0.74204  Biso   1.000  O
  Zr9      1.0000 0.25080  0.53295  0.12539  Biso   1.000  Zr
  Zr10     1.0000 0.25079  0.75007  0.38594  Biso   1.000  Zr
  Zr11     1.0000 0.75079  0.75008  0.12539  Biso   1.000  Zr
  Zr12     1.0000 0.75024  0.49149  0.37569  Biso   1.000  Zr
  O17      1.0000 0.02466  0.66094  0.00455  Biso   1.000  O
  O18      1.0000 0.97358  0.60056  0.24940  Biso   1.000  O
  O19      1.0000 0.02466  0.83921  0.24624  Biso   1.000  O
  O20      1.0000 0.97358  0.89959  0.00139  Biso   1.000  O
  O21      1.0000 0.47693  0.66094  0.24625  Biso   1.000  O
  O22      1.0000 0.52802  0.60056  0.00138  Biso   1.000  O
  O23      1.0000 0.47693  0.83921  0.00454  Biso   1.000  O
  O24      1.0000 0.52802  0.89958  0.24941  Biso   1.000  O
  Zr13     1.0000 0.25079  0.50692  0.62539  Biso   1.000  Zr
  Zr14     1.0000 0.25079  0.75007  0.86485  Biso   1.000  Zr
  Zr15     1.0000 0.75079  0.75008  0.62540  Biso   1.000  Zr
  Zr16     1.0000 0.75134  0.49149  0.87510  Biso   1.000  Zr
  O25      1.0000 0.99465  0.64740  0.50242  Biso   1.000  O
  O26      1.0000 0.00939  0.60353  0.75303  Biso   1.000  O
  O27      1.0000 0.99466  0.85275  0.74837  Biso   1.000  O
  O28      1.0000 0.00939  0.89663  0.49776  Biso   1.000  O
  O29      1.0000 0.50693  0.64740  0.74837  Biso   1.000  O
  O30      1.0000 0.49220  0.60353  0.49776  Biso   1.000  O
  O31      1.0000 0.50693  0.85275  0.50242  Biso   1.000  O
  O32      1.0000 0.49219  0.89662  0.75303  Biso   1.000  O
  Rb1      1.0000 0.25079  0.25008  0.12540  Biso   1.000  Rb
