data_image0
_cell_length_a       5.02348
_cell_length_b       10.1412
_cell_length_c       10.0444
_cell_angle_alpha    90
_cell_angle_beta     89.9999
_cell_angle_gamma    90

_symmetry_space_group_name_H-M    "P 1"
_symmetry_int_tables_number       1

loop_
  _symmetry_equiv_pos_as_xyz
  'x, y, z'

loop_
  _atom_site_label
  _atom_site_occupancy
  _atom_site_fract_x
  _atom_site_fract_y
  _atom_site_fract_z
  _atom_site_thermal_displace_type
  _atom_site_B_iso_or_equiv
  _atom_site_type_symbol
  Re1      1.0000 0.25079  0.00008  0.12540  Biso   1.000  Re
  Zr1      1.0000 0.25137  0.24896  0.37407  Biso   1.000  Zr
  Zr2      1.0000 0.75079  0.24826  0.12540  Biso   1.000  Zr
  Zr3      1.0000 0.75079  0.00008  0.37434  Biso   1.000  Zr
  O1       1.0000 0.99271  0.13877  0.99737  Biso   1.000  O
  O2       1.0000 0.01420  0.10521  0.24330  Biso   1.000  O
  O3       1.0000 0.98929  0.35575  0.25574  Biso   1.000  O
  O4       1.0000 0.00774  0.39210  0.00351  Biso   1.000  O
  O5       1.0000 0.50888  0.13877  0.25342  Biso   1.000  O
  O6       1.0000 0.48739  0.10521  0.00749  Biso   1.000  O
  O7       1.0000 0.51230  0.35575  0.99506  Biso   1.000  O
  O8       1.0000 0.49384  0.39210  0.24728  Biso   1.000  O
  Zr4      1.0000 0.25079  0.00008  0.62540  Biso   1.000  Zr
  Zr5      1.0000 0.25022  0.24897  0.87672  Biso   1.000  Zr
  Zr6      1.0000 0.75079  0.25062  0.62540  Biso   1.000  Zr
  Zr7      1.0000 0.75079  0.00008  0.87646  Biso   1.000  Zr
  O9       1.0000 0.98645  0.14377  0.49229  Biso   1.000  O
  O10      1.0000 0.00900  0.10757  0.74650  Biso   1.000  O
  O11      1.0000 0.99188  0.35647  0.75558  Biso   1.000  O
  O12      1.0000 0.00600  0.39314  0.50374  Biso   1.000  O
  O13      1.0000 0.51514  0.14377  0.75851  Biso   1.000  O
  O14      1.0000 0.49259  0.10757  0.50429  Biso   1.000  O
  O15      1.0000 0.50971  0.35647  0.49522  Biso   1.000  O
  O16      1.0000 0.49558  0.39314  0.74705  Biso   1.000  O
  Zr8      1.0000 0.25079  0.50008  0.12540  Biso   1.000  Zr
  Zr9      1.0000 0.25022  0.75119  0.37407  Biso   1.000  Zr
  Zr10     1.0000 0.75079  0.75190  0.12540  Biso   1.000  Zr
  Zr11     1.0000 0.75079  0.50008  0.37593  Biso   1.000  Zr
  O17      1.0000 0.98928  0.64440  0.99506  Biso   1.000  O
  O18      1.0000 0.00774  0.60805  0.24728  Biso   1.000  O
  O19      1.0000 0.99271  0.86138  0.25342  Biso   1.000  O
  O20      1.0000 0.01420  0.89494  0.00749  Biso   1.000  O
  O21      1.0000 0.51230  0.64440  0.25574  Biso   1.000  O
  O22      1.0000 0.49384  0.60805  0.00352  Biso   1.000  O
  O23      1.0000 0.50888  0.86138  0.99737  Biso   1.000  O
  O24      1.0000 0.48739  0.89494  0.24330  Biso   1.000  O
  Zr12     1.0000 0.25079  0.50008  0.62540  Biso   1.000  Zr
  Zr13     1.0000 0.25137  0.75118  0.87672  Biso   1.000  Zr
  Zr14     1.0000 0.75079  0.74953  0.62540  Biso   1.000  Zr
  Zr15     1.0000 0.75079  0.50008  0.87487  Biso   1.000  Zr
  O25      1.0000 0.99188  0.64368  0.49522  Biso   1.000  O
  O26      1.0000 0.00600  0.60701  0.74705  Biso   1.000  O
  O27      1.0000 0.98645  0.85639  0.75851  Biso   1.000  O
  O28      1.0000 0.00900  0.89258  0.50429  Biso   1.000  O
  O29      1.0000 0.50971  0.64368  0.75558  Biso   1.000  O
  O30      1.0000 0.49559  0.60701  0.50374  Biso   1.000  O
  O31      1.0000 0.51513  0.85639  0.49229  Biso   1.000  O
  O32      1.0000 0.49259  0.89258  0.74650  Biso   1.000  O
