data_image0
_cell_length_a       5.10013
_cell_length_b       10.51
_cell_length_c       10.1584
_cell_angle_alpha    89.0093
_cell_angle_beta     88.6568
_cell_angle_gamma    89.6347

_symmetry_space_group_name_H-M    "P 1"
_symmetry_int_tables_number       1

loop_
  _symmetry_equiv_pos_as_xyz
  'x, y, z'

loop_
  _atom_site_label
  _atom_site_occupancy
  _atom_site_fract_x
  _atom_site_fract_y
  _atom_site_fract_z
  _atom_site_thermal_displace_type
  _atom_site_B_iso_or_equiv
  _atom_site_type_symbol
  Zr1      1.0000 0.25976  0.00411  0.12100  Biso   1.000  Zr
  Zr2      1.0000 0.27493  0.24225  0.38161  Biso   1.000  Zr
  Zr3      1.0000 0.76937  0.24295  0.08509  Biso   1.000  Zr
  Zr4      1.0000 0.76055  0.47212  0.37693  Biso   1.000  Zr
  O1       1.0000 0.04315  0.17152  0.21821  Biso   1.000  O
  O2       1.0000 0.07930  0.07313  0.45264  Biso   1.000  O
  O3       1.0000 0.10510  0.42150  0.26222  Biso   1.000  O
  O4       1.0000 0.95684  0.31982  0.48186  Biso   1.000  O
  O5       1.0000 0.51909  0.09599  0.24330  Biso   1.000  O
  O6       1.0000 0.55065  0.13651  0.50258  Biso   1.000  O
  O7       1.0000 0.47284  0.38515  0.50192  Biso   1.000  O
  O8       1.0000 0.59413  0.33911  0.25732  Biso   1.000  O
  Zr5      1.0000 0.28183  0.00247  0.60913  Biso   1.000  Zr
  Zr6      1.0000 0.19855  0.22520  0.85295  Biso   1.000  Zr
  Zr7      1.0000 0.71123  0.26653  0.64341  Biso   1.000  Zr
  Zr8      1.0000 0.73359  0.50162  0.86476  Biso   1.000  Zr
  O9       1.0000 0.99474  0.13384  0.70629  Biso   1.000  O
  O10      1.0000 0.96667  0.08326  0.97834  Biso   1.000  O
  O11      1.0000 0.89323  0.43713  0.68705  Biso   1.000  O
  O12      1.0000 0.83422  0.30218  0.87566  Biso   1.000  O
  O13      1.0000 0.48733  0.10484  0.75221  Biso   1.000  O
  O14      1.0000 0.42696  0.16420  0.00429  Biso   1.000  O
  O15      1.0000 0.54576  0.41743  0.02621  Biso   1.000  O
  O16      1.0000 0.39845  0.36304  0.75116  Biso   1.000  O
  Zr9      1.0000 0.26574  0.54389  0.11147  Biso   1.000  Zr
  Zr10     1.0000 0.27447  0.73372  0.36826  Biso   1.000  Zr
  Zr11     1.0000 0.73705  0.76626  0.11894  Biso   1.000  Zr
  Zr12     1.0000 0.75628  0.99695  0.37027  Biso   1.000  Zr
  O17      1.0000 0.04257  0.68181  0.21241  Biso   1.000  O
  O18      1.0000 0.02610  0.59140  0.46812  Biso   1.000  O
  O19      1.0000 0.93455  0.92535  0.20591  Biso   1.000  O
  O20      1.0000 0.97958  0.83573  0.46160  Biso   1.000  O
  O21      1.0000 0.54852  0.60979  0.24452  Biso   1.000  O
  O22      1.0000 0.51671  0.62974  0.49298  Biso   1.000  O
  O23      1.0000 0.49333  0.88223  0.47964  Biso   1.000  O
  O24      1.0000 0.44931  0.85453  0.22811  Biso   1.000  O
  Zr13     1.0000 0.24560  0.50944  0.62113  Biso   1.000  Zr
  Zr14     1.0000 0.25686  0.75209  0.85153  Biso   1.000  Zr
  Zr15     1.0000 0.75740  0.74269  0.60024  Biso   1.000  Zr
  Zr16     1.0000 0.76639  0.97957  0.84674  Biso   1.000  Zr
  O25      1.0000 0.02441  0.66041  0.71687  Biso   1.000  O
  O26      1.0000 0.03887  0.58228  0.95364  Biso   1.000  O
  O27      1.0000 0.03160  0.89420  0.72303  Biso   1.000  O
  O28      1.0000 0.96250  0.83242  0.96162  Biso   1.000  O
  O29      1.0000 0.49849  0.60843  0.74115  Biso   1.000  O
  O30      1.0000 0.51916  0.66407  0.98377  Biso   1.000  O
  O31      1.0000 0.47242  0.91167  0.97512  Biso   1.000  O
  O32      1.0000 0.52912  0.85439  0.72684  Biso   1.000  O
  Re1      1.0000 0.28264  0.30010  0.12772  Biso   1.000  Re
