data_image0
_cell_length_a       10.0891
_cell_length_b       10.2889
_cell_length_c       10.4964
_cell_angle_alpha    90.015
_cell_angle_beta     90.2935
_cell_angle_gamma    89.7089

_symmetry_space_group_name_H-M    "P 1"
_symmetry_int_tables_number       1

loop_
  _symmetry_equiv_pos_as_xyz
  'x, y, z'

loop_
  _atom_site_label
  _atom_site_occupancy
  _atom_site_fract_x
  _atom_site_fract_y
  _atom_site_fract_z
  _atom_site_thermal_displace_type
  _atom_site_B_iso_or_equiv
  _atom_site_type_symbol
  Rh1      1.0000 0.12421  0.01182  0.19006  Biso   1.000  Rh
  Zr1      1.0000 0.13781  0.02093  0.66821  Biso   1.000  Zr
  Zr2      1.0000 0.13926  0.52281  0.17091  Biso   1.000  Zr
  Zr3      1.0000 0.13919  0.52115  0.67265  Biso   1.000  Zr
  Zr4      1.0000 0.13995  0.23143  0.41758  Biso   1.000  Zr
  Zr5      1.0000 0.14488  0.22538  0.92133  Biso   1.000  Zr
  Zr6      1.0000 0.13642  0.72773  0.42225  Biso   1.000  Zr
  Zr7      1.0000 0.13959  0.73322  0.92197  Biso   1.000  Zr
  Zr8      1.0000 0.35909  0.26967  0.16726  Biso   1.000  Zr
  Zr9      1.0000 0.36154  0.27170  0.67000  Biso   1.000  Zr
  Zr10     1.0000 0.35790  0.77655  0.16883  Biso   1.000  Zr
  Zr11     1.0000 0.36124  0.77168  0.67143  Biso   1.000  Zr
  Zr12     1.0000 0.36098  0.47943  0.42065  Biso   1.000  Zr
  Zr13     1.0000 0.36116  0.47943  0.92127  Biso   1.000  Zr
  Zr14     1.0000 0.35936  0.98041  0.41941  Biso   1.000  Zr
  Zr15     1.0000 0.36062  0.98216  0.92152  Biso   1.000  Zr
  Zr16     1.0000 0.63942  0.02164  0.07744  Biso   1.000  Zr
  Zr17     1.0000 0.63681  0.02106  0.57981  Biso   1.000  Zr
  Zr18     1.0000 0.63814  0.51995  0.07905  Biso   1.000  Zr
  Zr19     1.0000 0.63911  0.52065  0.58006  Biso   1.000  Zr
  Zr20     1.0000 0.63741  0.22930  0.32850  Biso   1.000  Zr
  Zr21     1.0000 0.64006  0.22965  0.82985  Biso   1.000  Zr
  Zr22     1.0000 0.63545  0.72767  0.32802  Biso   1.000  Zr
  Zr23     1.0000 0.63861  0.72905  0.82929  Biso   1.000  Zr
  Zr24     1.0000 0.86705  0.26721  0.08276  Biso   1.000  Zr
  Zr25     1.0000 0.86137  0.27055  0.57969  Biso   1.000  Zr
  Zr26     1.0000 0.86002  0.76854  0.07814  Biso   1.000  Zr
  Zr27     1.0000 0.85930  0.77013  0.58028  Biso   1.000  Zr
  Zr28     1.0000 0.86054  0.47877  0.32968  Biso   1.000  Zr
  Zr29     1.0000 0.86438  0.47667  0.83197  Biso   1.000  Zr
  Zr30     1.0000 0.85476  0.97724  0.33161  Biso   1.000  Zr
  Zr31     1.0000 0.86226  0.97957  0.82933  Biso   1.000  Zr
  O1       1.0000 0.04519  0.15569  0.09072  Biso   1.000  O
  O2       1.0000 0.03243  0.16368  0.57897  Biso   1.000  O
  O3       1.0000 0.03306  0.66677  0.08468  Biso   1.000  O
  O4       1.0000 0.03130  0.66430  0.58435  Biso   1.000  O
  O5       1.0000 0.03043  0.08404  0.33426  Biso   1.000  O
  O6       1.0000 0.03365  0.08518  0.83220  Biso   1.000  O
  O7       1.0000 0.03174  0.58397  0.33457  Biso   1.000  O
  O8       1.0000 0.03412  0.58494  0.83598  Biso   1.000  O
  O9       1.0000 0.46643  0.41715  0.08481  Biso   1.000  O
  O10      1.0000 0.46644  0.41803  0.58468  Biso   1.000  O
  O11      1.0000 0.46844  0.91668  0.08290  Biso   1.000  O
  O12      1.0000 0.46508  0.91782  0.58422  Biso   1.000  O
  O13      1.0000 0.46509  0.33130  0.33595  Biso   1.000  O
  O14      1.0000 0.46816  0.33464  0.83360  Biso   1.000  O
  O15      1.0000 0.46204  0.83335  0.33386  Biso   1.000  O
  O16      1.0000 0.46689  0.83357  0.83406  Biso   1.000  O
  O17      1.0000 0.27145  0.11874  0.28486  Biso   1.000  O
  O18      1.0000 0.27537  0.12262  0.78713  Biso   1.000  O
  O19      1.0000 0.27457  0.62651  0.29474  Biso   1.000  O
  O20      1.0000 0.27586  0.62467  0.79491  Biso   1.000  O
  O21      1.0000 0.29793  0.14368  0.02696  Biso   1.000  O
  O22      1.0000 0.27594  0.12773  0.53927  Biso   1.000  O
  O23      1.0000 0.27660  0.63127  0.04420  Biso   1.000  O
  O24      1.0000 0.27484  0.62566  0.54539  Biso   1.000  O
  O25      1.0000 0.22432  0.37450  0.29437  Biso   1.000  O
  O26      1.0000 0.22576  0.37353  0.79513  Biso   1.000  O
  O27      1.0000 0.21520  0.87492  0.29379  Biso   1.000  O
  O28      1.0000 0.22415  0.87449  0.79496  Biso   1.000  O
  O29      1.0000 0.22167  0.38161  0.04474  Biso   1.000  O
  O30      1.0000 0.22354  0.37617  0.54403  Biso   1.000  O
  O31      1.0000 0.22070  0.88719  0.04667  Biso   1.000  O
  O32      1.0000 0.22378  0.87598  0.54380  Biso   1.000  O
  O33      1.0000 0.53586  0.16815  0.16395  Biso   1.000  O
  O34      1.0000 0.53411  0.16848  0.66403  Biso   1.000  O
  O35      1.0000 0.53136  0.66769  0.16443  Biso   1.000  O
  O36      1.0000 0.53384  0.66732  0.66461  Biso   1.000  O
  O37      1.0000 0.53243  0.08211  0.41372  Biso   1.000  O
  O38      1.0000 0.53828  0.08096  0.91164  Biso   1.000  O
  O39      1.0000 0.53273  0.58279  0.41484  Biso   1.000  O
  O40      1.0000 0.53409  0.58282  0.91509  Biso   1.000  O
  O41      1.0000 0.96883  0.41430  0.16818  Biso   1.000  O
  O42      1.0000 0.96923  0.41243  0.66991  Biso   1.000  O
  O43      1.0000 0.96644  0.91386  0.16739  Biso   1.000  O
  O44      1.0000 0.96680  0.91444  0.66656  Biso   1.000  O
  O45      1.0000 0.96666  0.33427  0.41704  Biso   1.000  O
  O46      1.0000 0.97070  0.33136  0.92272  Biso   1.000  O
  O47      1.0000 0.96464  0.83446  0.41695  Biso   1.000  O
  O48      1.0000 0.96606  0.83419  0.91730  Biso   1.000  O
  O49      1.0000 0.77940  0.12377  0.95660  Biso   1.000  O
  O50      1.0000 0.77483  0.12310  0.45575  Biso   1.000  O
  O51      1.0000 0.77658  0.62313  0.95631  Biso   1.000  O
  O52      1.0000 0.77453  0.62395  0.45561  Biso   1.000  O
  O53      1.0000 0.77754  0.12388  0.20583  Biso   1.000  O
  O54      1.0000 0.77613  0.12591  0.70528  Biso   1.000  O
  O55      1.0000 0.77404  0.62457  0.20556  Biso   1.000  O
  O56      1.0000 0.77672  0.62477  0.70669  Biso   1.000  O
  O57      1.0000 0.72749  0.37272  0.95748  Biso   1.000  O
  O58      1.0000 0.72418  0.37373  0.45624  Biso   1.000  O
  O59      1.0000 0.72455  0.87341  0.95526  Biso   1.000  O
  O60      1.0000 0.72073  0.87298  0.45565  Biso   1.000  O
  O61      1.0000 0.72623  0.37376  0.20583  Biso   1.000  O
  O62      1.0000 0.72584  0.37612  0.70664  Biso   1.000  O
  O63      1.0000 0.72512  0.87505  0.20573  Biso   1.000  O
  O64      1.0000 0.72397  0.87600  0.70562  Biso   1.000  O
