data_image0
_cell_length_a       5.10672
_cell_length_b       10.2986
_cell_length_c       10.208
_cell_angle_alpha    89.9995
_cell_angle_beta     86.2421
_cell_angle_gamma    90.0002

_symmetry_space_group_name_H-M    "P 1"
_symmetry_int_tables_number       1

loop_
  _symmetry_equiv_pos_as_xyz
  'x, y, z'

loop_
  _atom_site_label
  _atom_site_occupancy
  _atom_site_fract_x
  _atom_site_fract_y
  _atom_site_fract_z
  _atom_site_thermal_displace_type
  _atom_site_B_iso_or_equiv
  _atom_site_type_symbol
  Zr1      1.0000 0.25093  0.95490  0.12556  Biso   1.000  Zr
  Zr2      1.0000 0.30528  0.24788  0.38061  Biso   1.000  Zr
  Zr3      1.0000 0.75092  0.28909  0.12556  Biso   1.000  Zr
  Zr4      1.0000 0.78660  0.00307  0.37333  Biso   1.000  Zr
  O1       1.0000 0.84739  0.16318  0.97278  Biso   1.000  O
  O2       1.0000 0.13962  0.08209  0.27776  Biso   1.000  O
  O3       1.0000 0.04685  0.35107  0.24582  Biso   1.000  O
  O4       1.0000 0.98024  0.41322  0.99090  Biso   1.000  O
  O5       1.0000 0.65444  0.16318  0.27834  Biso   1.000  O
  O6       1.0000 0.36222  0.08209  0.97336  Biso   1.000  O
  O7       1.0000 0.45504  0.35110  0.00526  Biso   1.000  O
  O8       1.0000 0.52161  0.41321  0.26021  Biso   1.000  O
  Zr5      1.0000 0.25091  0.00686  0.62556  Biso   1.000  Zr
  Zr6      1.0000 0.19655  0.24788  0.87050  Biso   1.000  Zr
  Zr7      1.0000 0.75091  0.24183  0.62555  Biso   1.000  Zr
  Zr8      1.0000 0.71522  0.00307  0.87779  Biso   1.000  Zr
  O9       1.0000 0.01539  0.14707  0.50447  Biso   1.000  O
  O10      1.0000 0.98949  0.10538  0.74819  Biso   1.000  O
  O11      1.0000 0.96767  0.35762  0.74246  Biso   1.000  O
  O12      1.0000 0.04521  0.39585  0.49373  Biso   1.000  O
  O13      1.0000 0.48646  0.14706  0.74666  Biso   1.000  O
  O14      1.0000 0.51235  0.10538  0.50293  Biso   1.000  O
  O15      1.0000 0.53412  0.35761  0.50865  Biso   1.000  O
  O16      1.0000 0.45658  0.39583  0.75737  Biso   1.000  O
  Zr9      1.0000 0.25094  0.51169  0.12557  Biso   1.000  Zr
  Zr10     1.0000 0.27357  0.75997  0.38870  Biso   1.000  Zr
  Zr11     1.0000 0.75093  0.74124  0.12557  Biso   1.000  Zr
  Zr12     1.0000 0.77623  0.49411  0.39026  Biso   1.000  Zr
  O17      1.0000 0.07462  0.65960  0.01441  Biso   1.000  O
  O18      1.0000 0.93049  0.59285  0.23772  Biso   1.000  O
  O19      1.0000 0.00962  0.84114  0.25777  Biso   1.000  O
  O20      1.0000 0.96306  0.89770  0.00395  Biso   1.000  O
  O21      1.0000 0.42728  0.65959  0.23674  Biso   1.000  O
  O22      1.0000 0.57141  0.59285  0.01343  Biso   1.000  O
  O23      1.0000 0.49224  0.84114  0.99335  Biso   1.000  O
  O24      1.0000 0.53880  0.89770  0.24717  Biso   1.000  O
  Zr13     1.0000 0.25088  0.50026  0.62557  Biso   1.000  Zr
  Zr14     1.0000 0.22821  0.75998  0.86243  Biso   1.000  Zr
  Zr15     1.0000 0.75089  0.75557  0.62557  Biso   1.000  Zr
  Zr16     1.0000 0.72554  0.49409  0.86087  Biso   1.000  Zr
  O25      1.0000 0.00199  0.64492  0.49982  Biso   1.000  O
  O26      1.0000 0.99948  0.61002  0.75286  Biso   1.000  O
  O27      1.0000 0.97037  0.85911  0.75374  Biso   1.000  O
  O28      1.0000 0.02429  0.89684  0.50565  Biso   1.000  O
  O29      1.0000 0.49980  0.64491  0.75133  Biso   1.000  O
  O30      1.0000 0.50230  0.61001  0.49828  Biso   1.000  O
  O31      1.0000 0.53142  0.85910  0.49738  Biso   1.000  O
  O32      1.0000 0.47751  0.89683  0.74547  Biso   1.000  O
  Rh1      1.0000 0.25091  0.20514  0.12555  Biso   1.000  Rh
