data_image0
_cell_length_a       10.2324
_cell_length_b       10.3305
_cell_length_c       10.5931
_cell_angle_alpha    89.9096
_cell_angle_beta     79.9582
_cell_angle_gamma    90.3892

_symmetry_space_group_name_H-M    "P 1"
_symmetry_int_tables_number       1

loop_
  _symmetry_equiv_pos_as_xyz
  'x, y, z'

loop_
  _atom_site_label
  _atom_site_occupancy
  _atom_site_fract_x
  _atom_site_fract_y
  _atom_site_fract_z
  _atom_site_thermal_displace_type
  _atom_site_B_iso_or_equiv
  _atom_site_type_symbol
  Zr1      1.0000 0.13673  0.02219  0.14618  Biso   1.000  Zr
  Zr2      1.0000 0.14042  0.23499  0.39385  Biso   1.000  Zr
  Zr3      1.0000 0.35672  0.27077  0.09651  Biso   1.000  Zr
  Zr4      1.0000 0.35018  0.48179  0.35464  Biso   1.000  Zr
  O1       1.0000 0.03423  0.16688  0.07609  Biso   1.000  O
  O2       1.0000 0.03564  0.08662  0.32512  Biso   1.000  O
  O3       1.0000 0.47466  0.38357  0.19721  Biso   1.000  O
  O4       1.0000 0.48369  0.36166  0.44164  Biso   1.000  O
  O5       1.0000 0.28232  0.12741  0.23821  Biso   1.000  O
  O6       1.0000 0.28973  0.12561  0.47989  Biso   1.000  O
  O7       1.0000 0.22301  0.38031  0.00439  Biso   1.000  O
  O8       1.0000 0.20896  0.37971  0.25012  Biso   1.000  O
  Zr5      1.0000 0.13750  0.02159  0.64541  Biso   1.000  Zr
  Zr6      1.0000 0.13616  0.22884  0.89312  Biso   1.000  Zr
  Zr7      1.0000 0.36142  0.27684  0.60661  Biso   1.000  Zr
  Zr8      1.0000 0.35987  0.48046  0.85487  Biso   1.000  Zr
  O9       1.0000 0.03893  0.16624  0.57537  Biso   1.000  O
  O10      1.0000 0.03197  0.08432  0.82561  Biso   1.000  O
  O11      1.0000 0.46978  0.40997  0.68341  Biso   1.000  O
  O12      1.0000 0.47174  0.34592  0.93134  Biso   1.000  O
  O13      1.0000 0.27390  0.12892  0.73785  Biso   1.000  O
  O14      1.0000 0.27315  0.12240  0.98672  Biso   1.000  O
  O15      1.0000 0.21978  0.38283  0.51572  Biso   1.000  O
  O16      1.0000 0.22460  0.37301  0.75949  Biso   1.000  O
  Zr9      1.0000 0.13663  0.52339  0.14237  Biso   1.000  Zr
  Zr10     1.0000 0.13466  0.72961  0.39612  Biso   1.000  Zr
  Zr11     1.0000 0.35986  0.77088  0.10336  Biso   1.000  Zr
  Zr12     1.0000 0.36450  0.96812  0.35448  Biso   1.000  Zr
  O17      1.0000 0.03051  0.66906  0.07643  Biso   1.000  O
  O18      1.0000 0.03039  0.58966  0.32434  Biso   1.000  O
  O19      1.0000 0.46901  0.90825  0.17525  Biso   1.000  O
  O20      1.0000 0.46512  0.82845  0.42592  Biso   1.000  O
  O21      1.0000 0.27323  0.62913  0.23983  Biso   1.000  O
  O22      1.0000 0.26889  0.62511  0.49263  Biso   1.000  O
  O23      1.0000 0.22454  0.87942  0.01042  Biso   1.000  O
  O24      1.0000 0.22352  0.87053  0.25940  Biso   1.000  O
  Zr13     1.0000 0.13554  0.52489  0.64720  Biso   1.000  Zr
  Zr14     1.0000 0.13588  0.73046  0.89618  Biso   1.000  Zr
  Zr15     1.0000 0.36092  0.76988  0.60595  Biso   1.000  Zr
  Zr16     1.0000 0.36108  0.97849  0.85380  Biso   1.000  Zr
  O25      1.0000 0.02829  0.66573  0.57690  Biso   1.000  O
  O26      1.0000 0.03083  0.58641  0.82870  Biso   1.000  O
  O27      1.0000 0.46692  0.91278  0.67436  Biso   1.000  O
  O28      1.0000 0.46765  0.83800  0.92545  Biso   1.000  O
  O29      1.0000 0.27382  0.62882  0.74127  Biso   1.000  O
  O30      1.0000 0.27263  0.62378  0.98932  Biso   1.000  O
  O31      1.0000 0.22485  0.88068  0.51102  Biso   1.000  O
  O32      1.0000 0.22362  0.87235  0.76044  Biso   1.000  O
  Zr17     1.0000 0.63980  0.02056  0.14477  Biso   1.000  Zr
  Zr18     1.0000 0.64414  0.22988  0.40069  Biso   1.000  Zr
  Zr19     1.0000 0.86141  0.27234  0.10552  Biso   1.000  Zr
  Zr20     1.0000 0.86196  0.47882  0.35516  Biso   1.000  Zr
  O33      1.0000 0.52841  0.15438  0.06888  Biso   1.000  O
  O34      1.0000 0.54842  0.06460  0.33312  Biso   1.000  O
  O35      1.0000 0.96336  0.41893  0.17092  Biso   1.000  O
  O36      1.0000 0.96806  0.33887  0.42491  Biso   1.000  O
  O37      1.0000 0.77853  0.12872  0.23843  Biso   1.000  O
  O38      1.0000 0.77920  0.12060  0.49177  Biso   1.000  O
  O39      1.0000 0.72365  0.37727  0.01299  Biso   1.000  O
  O40      1.0000 0.72665  0.37170  0.26282  Biso   1.000  O
  Zr21     1.0000 0.63791  0.02261  0.64443  Biso   1.000  Zr
  Zr22     1.0000 0.63799  0.22740  0.89673  Biso   1.000  Zr
  Zr23     1.0000 0.86397  0.27200  0.60663  Biso   1.000  Zr
  Zr24     1.0000 0.85895  0.47841  0.85708  Biso   1.000  Zr
  O41      1.0000 0.53285  0.16552  0.57704  Biso   1.000  O
  O42      1.0000 0.53029  0.08971  0.82230  Biso   1.000  O
  O43      1.0000 0.96565  0.41560  0.67609  Biso   1.000  O
  O44      1.0000 0.96500  0.33443  0.92213  Biso   1.000  O
  O45      1.0000 0.77512  0.12838  0.74046  Biso   1.000  O
  O46      1.0000 0.77497  0.12193  0.98953  Biso   1.000  O
  O47      1.0000 0.72944  0.37758  0.51419  Biso   1.000  O
  O48      1.0000 0.72461  0.37187  0.76241  Biso   1.000  O
  Zr25     1.0000 0.63641  0.51915  0.14933  Biso   1.000  Zr
  Zr26     1.0000 0.63733  0.72511  0.39471  Biso   1.000  Zr
  Zr27     1.0000 0.85944  0.77139  0.10447  Biso   1.000  Zr
  Zr28     1.0000 0.86064  0.97963  0.35378  Biso   1.000  Zr
  O49      1.0000 0.52569  0.65245  0.07225  Biso   1.000  O
  O50      1.0000 0.52665  0.58998  0.32003  Biso   1.000  O
  O51      1.0000 0.96669  0.91673  0.17186  Biso   1.000  O
  O52      1.0000 0.96557  0.83810  0.42427  Biso   1.000  O
  O53      1.0000 0.77189  0.62572  0.23918  Biso   1.000  O
  O54      1.0000 0.77370  0.62171  0.48943  Biso   1.000  O
  O55      1.0000 0.72290  0.87774  0.01074  Biso   1.000  O
  O56      1.0000 0.72717  0.86826  0.25946  Biso   1.000  O
  Zr29     1.0000 0.63905  0.52114  0.64658  Biso   1.000  Zr
  Zr30     1.0000 0.63692  0.72702  0.89616  Biso   1.000  Zr
  Zr31     1.0000 0.85835  0.77321  0.60453  Biso   1.000  Zr
  Zr32     1.0000 0.85904  0.97843  0.85464  Biso   1.000  Zr
  O57      1.0000 0.53052  0.65930  0.57487  Biso   1.000  O
  O58      1.0000 0.53033  0.59089  0.82256  Biso   1.000  O
  O59      1.0000 0.96613  0.91541  0.67371  Biso   1.000  O
  O60      1.0000 0.96437  0.83619  0.92295  Biso   1.000  O
  O61      1.0000 0.77414  0.62862  0.74069  Biso   1.000  O
  O62      1.0000 0.77200  0.62155  0.99155  Biso   1.000  O
  O63      1.0000 0.72255  0.87807  0.50962  Biso   1.000  O
  O64      1.0000 0.72304  0.87193  0.76022  Biso   1.000  O
  Ru1      1.0000 0.40962  0.23520  0.33162  Biso   1.000  Ru
