data_image0
_cell_length_a       10.0798
_cell_length_b       10.5171
_cell_length_c       10.1577
_cell_angle_alpha    89.3099
_cell_angle_beta     91.3099
_cell_angle_gamma    90.2464

_symmetry_space_group_name_H-M    "P 1"
_symmetry_int_tables_number       1

loop_
  _symmetry_equiv_pos_as_xyz
  'x, y, z'

loop_
  _atom_site_label
  _atom_site_occupancy
  _atom_site_fract_x
  _atom_site_fract_y
  _atom_site_fract_z
  _atom_site_thermal_displace_type
  _atom_site_B_iso_or_equiv
  _atom_site_type_symbol
  Zr1      1.0000 0.13397  0.01285  0.12083  Biso   1.000  Zr
  Zr2      1.0000 0.13140  0.23612  0.37857  Biso   1.000  Zr
  Zr3      1.0000 0.36756  0.26940  0.11675  Biso   1.000  Zr
  Zr4      1.0000 0.36661  0.48205  0.37518  Biso   1.000  Zr
  O1       1.0000 0.01740  0.18120  0.20335  Biso   1.000  O
  O2       1.0000 0.04232  0.05839  0.42756  Biso   1.000  O
  O3       1.0000 0.46566  0.43422  0.20240  Biso   1.000  O
  O4       1.0000 0.46248  0.31441  0.44689  Biso   1.000  O
  O5       1.0000 0.26476  0.11923  0.23739  Biso   1.000  O
  O6       1.0000 0.27254  0.13213  0.48795  Biso   1.000  O
  O7       1.0000 0.22997  0.38279  0.49975  Biso   1.000  O
  O8       1.0000 0.22704  0.36548  0.24904  Biso   1.000  O
  Zr5      1.0000 0.12859  0.99544  0.60612  Biso   1.000  Zr
  Zr6      1.0000 0.14238  0.20034  0.82878  Biso   1.000  Zr
  Zr7      1.0000 0.37116  0.26124  0.62108  Biso   1.000  Zr
  Zr8      1.0000 0.37771  0.48765  0.86826  Biso   1.000  Zr
  O9       1.0000 0.04408  0.16708  0.65451  Biso   1.000  O
  O10      1.0000 0.03728  0.05939  0.93861  Biso   1.000  O
  O11      1.0000 0.46530  0.42885  0.68870  Biso   1.000  O
  O12      1.0000 0.47560  0.31550  0.94219  Biso   1.000  O
  O13      1.0000 0.27620  0.09611  0.72667  Biso   1.000  O
  O14      1.0000 0.28863  0.13062  0.97869  Biso   1.000  O
  O15      1.0000 0.27109  0.42020  0.01373  Biso   1.000  O
  O16      1.0000 0.23446  0.35740  0.74989  Biso   1.000  O
  Zr9      1.0000 0.13630  0.53168  0.12893  Biso   1.000  Zr
  Zr10     1.0000 0.13738  0.73596  0.37693  Biso   1.000  Zr
  Zr11     1.0000 0.36605  0.76936  0.12677  Biso   1.000  Zr
  Zr12     1.0000 0.36721  0.98774  0.37076  Biso   1.000  Zr
  O17      1.0000 0.03611  0.68880  0.20026  Biso   1.000  O
  O18      1.0000 0.04107  0.57273  0.44276  Biso   1.000  O
  O19      1.0000 0.46531  0.93733  0.19675  Biso   1.000  O
  O20      1.0000 0.46894  0.81793  0.44604  Biso   1.000  O
  O21      1.0000 0.27570  0.62256  0.25430  Biso   1.000  O
  O22      1.0000 0.27139  0.63238  0.50225  Biso   1.000  O
  O23      1.0000 0.24138  0.87997  0.49230  Biso   1.000  O
  O24      1.0000 0.23076  0.86923  0.24569  Biso   1.000  O
  Zr13     1.0000 0.13519  0.51669  0.62303  Biso   1.000  Zr
  Zr14     1.0000 0.13144  0.73923  0.87268  Biso   1.000  Zr
  Zr15     1.0000 0.37231  0.76244  0.62605  Biso   1.000  Zr
  Zr16     1.0000 0.37449  0.98006  0.87282  Biso   1.000  Zr
  O25      1.0000 0.03698  0.68220  0.69649  Biso   1.000  O
  O26      1.0000 0.03459  0.56208  0.94360  Biso   1.000  O
  O27      1.0000 0.47552  0.92463  0.69831  Biso   1.000  O
  O28      1.0000 0.46939  0.81651  0.95129  Biso   1.000  O
  O29      1.0000 0.26857  0.61341  0.75130  Biso   1.000  O
  O30      1.0000 0.26069  0.65218  0.00304  Biso   1.000  O
  O31      1.0000 0.23374  0.89071  0.99583  Biso   1.000  O
  O32      1.0000 0.23733  0.85816  0.74449  Biso   1.000  O
  Zr17     1.0000 0.63233  0.01484  0.12812  Biso   1.000  Zr
  Zr18     1.0000 0.62988  0.23087  0.39056  Biso   1.000  Zr
  Zr19     1.0000 0.82673  0.26975  0.15876  Biso   1.000  Zr
  Zr20     1.0000 0.86838  0.48408  0.39271  Biso   1.000  Zr
  O33      1.0000 0.53809  0.18710  0.19504  Biso   1.000  O
  O34      1.0000 0.53424  0.06552  0.45228  Biso   1.000  O
  O35      1.0000 0.95482  0.43968  0.21932  Biso   1.000  O
  O36      1.0000 0.96075  0.31023  0.44654  Biso   1.000  O
  O37      1.0000 0.75834  0.11300  0.26538  Biso   1.000  O
  O38      1.0000 0.77394  0.13007  0.50956  Biso   1.000  O
  O39      1.0000 0.72730  0.37600  0.51111  Biso   1.000  O
  O40      1.0000 0.71230  0.37948  0.27086  Biso   1.000  O
  Zr21     1.0000 0.63974  0.01374  0.63109  Biso   1.000  Zr
  Zr22     1.0000 0.63932  0.23218  0.87995  Biso   1.000  Zr
  Zr23     1.0000 0.87069  0.27010  0.63693  Biso   1.000  Zr
  Zr24     1.0000 0.86380  0.48230  0.87329  Biso   1.000  Zr
  O41      1.0000 0.53814  0.17896  0.69684  Biso   1.000  O
  O42      1.0000 0.54515  0.06244  0.94415  Biso   1.000  O
  O43      1.0000 0.94990  0.45302  0.65870  Biso   1.000  O
  O44      1.0000 0.96082  0.30485  0.84023  Biso   1.000  O
  O45      1.0000 0.77326  0.11499  0.75797  Biso   1.000  O
  O46      1.0000 0.77368  0.13519  0.01288  Biso   1.000  O
  O47      1.0000 0.73700  0.38337  0.00987  Biso   1.000  O
  O48      1.0000 0.72343  0.37119  0.75636  Biso   1.000  O
  Zr25     1.0000 0.63236  0.52149  0.13548  Biso   1.000  Zr
  Zr26     1.0000 0.63432  0.73455  0.37979  Biso   1.000  Zr
  Zr27     1.0000 0.86404  0.76520  0.13208  Biso   1.000  Zr
  Zr28     1.0000 0.86606  0.98180  0.37951  Biso   1.000  Zr
  O49      1.0000 0.53657  0.68629  0.19837  Biso   1.000  O
  O50      1.0000 0.53445  0.56696  0.44895  Biso   1.000  O
  O51      1.0000 0.96463  0.93483  0.19570  Biso   1.000  O
  O52      1.0000 0.97655  0.82251  0.46137  Biso   1.000  O
  O53      1.0000 0.77065  0.62094  0.25878  Biso   1.000  O
  O54      1.0000 0.76835  0.63433  0.50737  Biso   1.000  O
  O55      1.0000 0.73479  0.88162  0.50455  Biso   1.000  O
  O56      1.0000 0.73262  0.86721  0.25454  Biso   1.000  O
  Zr29     1.0000 0.63529  0.51413  0.62834  Biso   1.000  Zr
  Zr30     1.0000 0.63548  0.73360  0.88168  Biso   1.000  Zr
  Zr31     1.0000 0.86738  0.76485  0.63288  Biso   1.000  Zr
  Zr32     1.0000 0.86393  0.98009  0.88340  Biso   1.000  Zr
  O57      1.0000 0.53375  0.67494  0.70573  Biso   1.000  O
  O58      1.0000 0.53642  0.56938  0.95406  Biso   1.000  O
  O59      1.0000 0.96950  0.92892  0.70596  Biso   1.000  O
  O60      1.0000 0.96540  0.81285  0.95211  Biso   1.000  O
  O61      1.0000 0.76999  0.61784  0.75684  Biso   1.000  O
  O62      1.0000 0.76990  0.63307  0.00592  Biso   1.000  O
  O63      1.0000 0.73109  0.88183  0.00571  Biso   1.000  O
  O64      1.0000 0.73479  0.86449  0.75515  Biso   1.000  O
  Sb1      1.0000 0.05295  0.30141  0.04260  Biso   1.000  Sb
