data_image0
_cell_length_a       10.1195
_cell_length_b       10.3061
_cell_length_c       5.27067
_cell_angle_alpha    89.9344
_cell_angle_beta     90.2034
_cell_angle_gamma    89.8579

_symmetry_space_group_name_H-M    "P 1"
_symmetry_int_tables_number       1

loop_
  _symmetry_equiv_pos_as_xyz
  'x, y, z'

loop_
  _atom_site_label
  _atom_site_occupancy
  _atom_site_fract_x
  _atom_site_fract_y
  _atom_site_fract_z
  _atom_site_thermal_displace_type
  _atom_site_B_iso_or_equiv
  _atom_site_type_symbol
  Sb1      1.0000 0.13017  0.01807  0.35181  Biso   1.000  Sb
  Zr1      1.0000 0.13890  0.52156  0.34328  Biso   1.000  Zr
  Zr2      1.0000 0.14215  0.23011  0.84313  Biso   1.000  Zr
  Zr3      1.0000 0.13811  0.72872  0.84291  Biso   1.000  Zr
  Zr4      1.0000 0.36106  0.27127  0.34036  Biso   1.000  Zr
  Zr5      1.0000 0.36231  0.77141  0.33948  Biso   1.000  Zr
  Zr6      1.0000 0.36127  0.47926  0.84210  Biso   1.000  Zr
  Zr7      1.0000 0.36207  0.98008  0.84198  Biso   1.000  Zr
  Zr8      1.0000 0.63830  0.02154  0.15964  Biso   1.000  Zr
  Zr9      1.0000 0.63860  0.52024  0.15691  Biso   1.000  Zr
  Zr10     1.0000 0.63820  0.22941  0.65777  Biso   1.000  Zr
  Zr11     1.0000 0.63765  0.72808  0.65659  Biso   1.000  Zr
  Zr12     1.0000 0.86153  0.27112  0.15858  Biso   1.000  Zr
  Zr13     1.0000 0.85987  0.76879  0.15666  Biso   1.000  Zr
  Zr14     1.0000 0.86226  0.47790  0.65782  Biso   1.000  Zr
  Zr15     1.0000 0.85624  0.97868  0.66432  Biso   1.000  Zr
  O1       1.0000 0.03332  0.16333  0.16028  Biso   1.000  O
  O2       1.0000 0.03187  0.66475  0.16539  Biso   1.000  O
  O3       1.0000 0.03115  0.08561  0.66489  Biso   1.000  O
  O4       1.0000 0.03176  0.58583  0.66444  Biso   1.000  O
  O5       1.0000 0.46798  0.41456  0.16449  Biso   1.000  O
  O6       1.0000 0.46893  0.91494  0.16559  Biso   1.000  O
  O7       1.0000 0.46822  0.33597  0.66477  Biso   1.000  O
  O8       1.0000 0.46850  0.83581  0.66185  Biso   1.000  O
  O9       1.0000 0.27632  0.12562  0.59110  Biso   1.000  O
  O10      1.0000 0.27526  0.62494  0.58962  Biso   1.000  O
  O11      1.0000 0.28189  0.13120  0.07849  Biso   1.000  O
  O12      1.0000 0.27493  0.62517  0.09030  Biso   1.000  O
  O13      1.0000 0.22515  0.37524  0.58956  Biso   1.000  O
  O14      1.0000 0.22453  0.87357  0.58903  Biso   1.000  O
  O15      1.0000 0.22393  0.37754  0.09008  Biso   1.000  O
  O16      1.0000 0.22830  0.87365  0.08126  Biso   1.000  O
  O17      1.0000 0.53307  0.16560  0.33362  Biso   1.000  O
  O18      1.0000 0.53248  0.66396  0.33313  Biso   1.000  O
  O19      1.0000 0.53524  0.08419  0.83251  Biso   1.000  O
  O20      1.0000 0.53204  0.58525  0.83430  Biso   1.000  O
  O21      1.0000 0.96843  0.41336  0.33709  Biso   1.000  O
  O22      1.0000 0.96197  0.91448  0.33752  Biso   1.000  O
  O23      1.0000 0.96866  0.33630  0.83915  Biso   1.000  O
  O24      1.0000 0.96715  0.83676  0.83735  Biso   1.000  O
  O25      1.0000 0.77613  0.12393  0.91279  Biso   1.000  O
  O26      1.0000 0.77530  0.62349  0.90966  Biso   1.000  O
  O27      1.0000 0.77560  0.12577  0.41244  Biso   1.000  O
  O28      1.0000 0.77510  0.62508  0.40953  Biso   1.000  O
  O29      1.0000 0.72513  0.37370  0.91059  Biso   1.000  O
  O30      1.0000 0.72317  0.87307  0.91281  Biso   1.000  O
  O31      1.0000 0.72524  0.37554  0.40989  Biso   1.000  O
  O32      1.0000 0.72459  0.87552  0.41316  Biso   1.000  O
