data_image0
_cell_length_a       10.1304
_cell_length_b       5.11151
_cell_length_c       10.1304
_cell_angle_alpha    89.9999
_cell_angle_beta     90
_cell_angle_gamma    89.9999

_symmetry_space_group_name_H-M    "P 1"
_symmetry_int_tables_number       1

loop_
  _symmetry_equiv_pos_as_xyz
  'x, y, z'

loop_
  _atom_site_label
  _atom_site_occupancy
  _atom_site_fract_x
  _atom_site_fract_y
  _atom_site_fract_z
  _atom_site_thermal_displace_type
  _atom_site_B_iso_or_equiv
  _atom_site_type_symbol
  Zr1      1.0000 0.12540  0.00015  0.12540  Biso   1.000  Zr
  Zr2      1.0000 0.12540  0.50015  0.39313  Biso   1.000  Zr
  Zr3      1.0000 0.39313  0.50015  0.12540  Biso   1.000  Zr
  Zr4      1.0000 0.37008  0.99786  0.37008  Biso   1.000  Zr
  O1       1.0000 0.99726  0.27582  0.99726  Biso   1.000  O
  O2       1.0000 0.00242  0.23693  0.24836  Biso   1.000  O
  O3       1.0000 0.99726  0.72448  0.25354  Biso   1.000  O
  O4       1.0000 0.00242  0.76338  0.00243  Biso   1.000  O
  O5       1.0000 0.25353  0.27582  0.25354  Biso   1.000  O
  O6       1.0000 0.24837  0.23693  0.00243  Biso   1.000  O
  O7       1.0000 0.25353  0.72448  0.99726  Biso   1.000  O
  O8       1.0000 0.24837  0.76337  0.24837  Biso   1.000  O
  Zr5      1.0000 0.12540  0.00015  0.62540  Biso   1.000  Zr
  Zr6      1.0000 0.12540  0.50015  0.85766  Biso   1.000  Zr
  Zr7      1.0000 0.38025  0.50015  0.62540  Biso   1.000  Zr
  Zr8      1.0000 0.37009  0.00245  0.88071  Biso   1.000  Zr
  O9       1.0000 0.99255  0.27851  0.50067  Biso   1.000  O
  O10      1.0000 0.00515  0.21724  0.74836  Biso   1.000  O
  O11      1.0000 0.99255  0.72180  0.75012  Biso   1.000  O
  O12      1.0000 0.00515  0.78305  0.50243  Biso   1.000  O
  O13      1.0000 0.25824  0.27850  0.75012  Biso   1.000  O
  O14      1.0000 0.24564  0.21725  0.50243  Biso   1.000  O
  O15      1.0000 0.25825  0.72180  0.50067  Biso   1.000  O
  O16      1.0000 0.24564  0.78305  0.74836  Biso   1.000  O
  Zr9      1.0000 0.62540  0.00015  0.12540  Biso   1.000  Zr
  Zr10     1.0000 0.62540  0.50015  0.38025  Biso   1.000  Zr
  Zr11     1.0000 0.85766  0.50015  0.12540  Biso   1.000  Zr
  Zr12     1.0000 0.88071  0.00245  0.37008  Biso   1.000  Zr
  O17      1.0000 0.50067  0.27851  0.99254  Biso   1.000  O
  O18      1.0000 0.50243  0.21725  0.24564  Biso   1.000  O
  O19      1.0000 0.50067  0.72179  0.25825  Biso   1.000  O
  O20      1.0000 0.50243  0.78305  0.00515  Biso   1.000  O
  O21      1.0000 0.75012  0.27851  0.25825  Biso   1.000  O
  O22      1.0000 0.74836  0.21725  0.00515  Biso   1.000  O
  O23      1.0000 0.75012  0.72179  0.99254  Biso   1.000  O
  O24      1.0000 0.74836  0.78305  0.24564  Biso   1.000  O
  Zr13     1.0000 0.62540  0.00015  0.62540  Biso   1.000  Zr
  Zr14     1.0000 0.62540  0.50015  0.87054  Biso   1.000  Zr
  Zr15     1.0000 0.87054  0.50015  0.62540  Biso   1.000  Zr
  Zr16     1.0000 0.88071  0.99785  0.88071  Biso   1.000  Zr
  O25      1.0000 0.49416  0.28789  0.49415  Biso   1.000  O
  O26      1.0000 0.50420  0.21304  0.74659  Biso   1.000  O
  O27      1.0000 0.49415  0.71241  0.75664  Biso   1.000  O
  O28      1.0000 0.50420  0.78726  0.50420  Biso   1.000  O
  O29      1.0000 0.75664  0.28789  0.75664  Biso   1.000  O
  O30      1.0000 0.74659  0.21304  0.50421  Biso   1.000  O
  O31      1.0000 0.75664  0.71241  0.49415  Biso   1.000  O
  O32      1.0000 0.74659  0.78726  0.74659  Biso   1.000  O
  Sc1      1.0000 0.12540  0.50015  0.12540  Biso   1.000  Sc
