data_image0
_cell_length_a       5.02424
_cell_length_b       10.3843
_cell_length_c       10.0814
_cell_angle_alpha    90.02
_cell_angle_beta     89.9724
_cell_angle_gamma    90.0557

_symmetry_space_group_name_H-M    "P 1"
_symmetry_int_tables_number       1

loop_
  _symmetry_equiv_pos_as_xyz
  'x, y, z'

loop_
  _atom_site_label
  _atom_site_occupancy
  _atom_site_fract_x
  _atom_site_fract_y
  _atom_site_fract_z
  _atom_site_thermal_displace_type
  _atom_site_B_iso_or_equiv
  _atom_site_type_symbol
  Sc1      1.0000 0.27010  0.01665  0.12274  Biso   1.000  Sc
  Zr1      1.0000 0.26745  0.01573  0.62522  Biso   1.000  Zr
  Zr2      1.0000 0.26994  0.51531  0.12536  Biso   1.000  Zr
  Zr3      1.0000 0.26846  0.51588  0.62550  Biso   1.000  Zr
  Zr4      1.0000 0.26784  0.23238  0.37387  Biso   1.000  Zr
  Zr5      1.0000 0.26802  0.23253  0.87626  Biso   1.000  Zr
  Zr6      1.0000 0.26946  0.73609  0.37491  Biso   1.000  Zr
  Zr7      1.0000 0.27053  0.73559  0.87648  Biso   1.000  Zr
  Zr8      1.0000 0.72902  0.26269  0.12589  Biso   1.000  Zr
  Zr9      1.0000 0.73114  0.26541  0.62485  Biso   1.000  Zr
  Zr10     1.0000 0.72957  0.76844  0.12563  Biso   1.000  Zr
  Zr11     1.0000 0.73297  0.76648  0.62549  Biso   1.000  Zr
  Zr12     1.0000 0.73182  0.48446  0.37572  Biso   1.000  Zr
  Zr13     1.0000 0.73127  0.48410  0.87555  Biso   1.000  Zr
  Zr14     1.0000 0.73075  0.98500  0.37176  Biso   1.000  Zr
  Zr15     1.0000 0.72922  0.98461  0.87715  Biso   1.000  Zr
  O1       1.0000 0.06585  0.18243  0.19665  Biso   1.000  O
  O2       1.0000 0.07076  0.18439  0.69404  Biso   1.000  O
  O3       1.0000 0.06786  0.68203  0.19545  Biso   1.000  O
  O4       1.0000 0.07079  0.68367  0.69502  Biso   1.000  O
  O5       1.0000 0.06715  0.06706  0.44665  Biso   1.000  O
  O6       1.0000 0.06806  0.06747  0.94219  Biso   1.000  O
  O7       1.0000 0.06975  0.56688  0.44530  Biso   1.000  O
  O8       1.0000 0.07059  0.56681  0.94494  Biso   1.000  O
  O9       1.0000 0.93135  0.43245  0.19543  Biso   1.000  O
  O10      1.0000 0.92927  0.43389  0.69472  Biso   1.000  O
  O11      1.0000 0.93546  0.93134  0.19607  Biso   1.000  O
  O12      1.0000 0.92940  0.93369  0.69521  Biso   1.000  O
  O13      1.0000 0.93020  0.31716  0.44503  Biso   1.000  O
  O14      1.0000 0.93081  0.31738  0.94522  Biso   1.000  O
  O15      1.0000 0.93193  0.81696  0.44614  Biso   1.000  O
  O16      1.0000 0.92921  0.81627  0.94392  Biso   1.000  O
  O17      1.0000 0.54006  0.11814  0.24888  Biso   1.000  O
  O18      1.0000 0.53930  0.11715  0.74810  Biso   1.000  O
  O19      1.0000 0.53892  0.61632  0.24849  Biso   1.000  O
  O20      1.0000 0.53965  0.61755  0.74882  Biso   1.000  O
  O21      1.0000 0.53752  0.13330  0.49855  Biso   1.000  O
  O22      1.0000 0.54075  0.13296  0.99757  Biso   1.000  O
  O23      1.0000 0.53881  0.63363  0.49854  Biso   1.000  O
  O24      1.0000 0.54018  0.63199  0.99887  Biso   1.000  O
  O25      1.0000 0.46096  0.38335  0.49846  Biso   1.000  O
  O26      1.0000 0.46043  0.38245  0.99867  Biso   1.000  O
  O27      1.0000 0.46236  0.88380  0.49856  Biso   1.000  O
  O28      1.0000 0.46048  0.88169  0.99891  Biso   1.000  O
  O29      1.0000 0.46045  0.36712  0.24846  Biso   1.000  O
  O30      1.0000 0.46084  0.36727  0.74870  Biso   1.000  O
  O31      1.0000 0.46447  0.86533  0.24981  Biso   1.000  O
  O32      1.0000 0.45999  0.86733  0.74818  Biso   1.000  O
