data_image0
_cell_length_a       5.01469
_cell_length_b       10.4341
_cell_length_c       10.0667
_cell_angle_alpha    90.132
_cell_angle_beta     89.7439
_cell_angle_gamma    90.0168

_symmetry_space_group_name_H-M    "P 1"
_symmetry_int_tables_number       1

loop_
  _symmetry_equiv_pos_as_xyz
  'x, y, z'

loop_
  _atom_site_label
  _atom_site_occupancy
  _atom_site_fract_x
  _atom_site_fract_y
  _atom_site_fract_z
  _atom_site_thermal_displace_type
  _atom_site_B_iso_or_equiv
  _atom_site_type_symbol
  Sn1      1.0000 0.26248  0.01879  0.12037  Biso   1.000  Sn
  Zr1      1.0000 0.26691  0.01587  0.62567  Biso   1.000  Zr
  Zr2      1.0000 0.26901  0.51550  0.12648  Biso   1.000  Zr
  Zr3      1.0000 0.26746  0.51653  0.62494  Biso   1.000  Zr
  Zr4      1.0000 0.26867  0.23302  0.37586  Biso   1.000  Zr
  Zr5      1.0000 0.26653  0.23663  0.87394  Biso   1.000  Zr
  Zr6      1.0000 0.27026  0.73538  0.37533  Biso   1.000  Zr
  Zr7      1.0000 0.26415  0.73461  0.87665  Biso   1.000  Zr
  Zr8      1.0000 0.73196  0.26579  0.12482  Biso   1.000  Zr
  Zr9      1.0000 0.73284  0.26610  0.62480  Biso   1.000  Zr
  Zr10     1.0000 0.73637  0.76447  0.12586  Biso   1.000  Zr
  Zr11     1.0000 0.73213  0.76614  0.62608  Biso   1.000  Zr
  Zr12     1.0000 0.73397  0.48418  0.37567  Biso   1.000  Zr
  Zr13     1.0000 0.73135  0.48570  0.87504  Biso   1.000  Zr
  Zr14     1.0000 0.73455  0.98412  0.37538  Biso   1.000  Zr
  Zr15     1.0000 0.72916  0.98493  0.87499  Biso   1.000  Zr
  O1       1.0000 0.06798  0.18303  0.19492  Biso   1.000  O
  O2       1.0000 0.07144  0.18484  0.69416  Biso   1.000  O
  O3       1.0000 0.07354  0.68278  0.19544  Biso   1.000  O
  O4       1.0000 0.06911  0.68379  0.69595  Biso   1.000  O
  O5       1.0000 0.07179  0.06628  0.44590  Biso   1.000  O
  O6       1.0000 0.06715  0.06720  0.94238  Biso   1.000  O
  O7       1.0000 0.07200  0.56610  0.44464  Biso   1.000  O
  O8       1.0000 0.06837  0.56688  0.94608  Biso   1.000  O
  O9       1.0000 0.93083  0.43239  0.19466  Biso   1.000  O
  O10      1.0000 0.92900  0.43415  0.69441  Biso   1.000  O
  O11      1.0000 0.93889  0.93162  0.19478  Biso   1.000  O
  O12      1.0000 0.92746  0.93441  0.69451  Biso   1.000  O
  O13      1.0000 0.92964  0.31598  0.44402  Biso   1.000  O
  O14      1.0000 0.92644  0.31659  0.94358  Biso   1.000  O
  O15      1.0000 0.93172  0.81643  0.44630  Biso   1.000  O
  O16      1.0000 0.92103  0.81649  0.94282  Biso   1.000  O
  O17      1.0000 0.53376  0.11356  0.24750  Biso   1.000  O
  O18      1.0000 0.53900  0.11774  0.74823  Biso   1.000  O
  O19      1.0000 0.54124  0.61474  0.24895  Biso   1.000  O
  O20      1.0000 0.53678  0.61755  0.74934  Biso   1.000  O
  O21      1.0000 0.54131  0.13326  0.49799  Biso   1.000  O
  O22      1.0000 0.53501  0.13373  0.99814  Biso   1.000  O
  O23      1.0000 0.53950  0.63378  0.49912  Biso   1.000  O
  O24      1.0000 0.53681  0.63404  0.99901  Biso   1.000  O
  O25      1.0000 0.46150  0.38310  0.49885  Biso   1.000  O
  O26      1.0000 0.46012  0.38386  0.99834  Biso   1.000  O
  O27      1.0000 0.46281  0.88381  0.50025  Biso   1.000  O
  O28      1.0000 0.45437  0.88470  0.00280  Biso   1.000  O
  O29      1.0000 0.46241  0.36553  0.24895  Biso   1.000  O
  O30      1.0000 0.46084  0.36791  0.74831  Biso   1.000  O
  O31      1.0000 0.47475  0.86320  0.25126  Biso   1.000  O
  O32      1.0000 0.45883  0.86715  0.75061  Biso   1.000  O
