data_image0
_cell_length_a       10.2608
_cell_length_b       10.4484
_cell_length_c       5.35743
_cell_angle_alpha    89.8094
_cell_angle_beta     79.0349
_cell_angle_gamma    90.3896

_symmetry_space_group_name_H-M    "P 1"
_symmetry_int_tables_number       1

loop_
  _symmetry_equiv_pos_as_xyz
  'x, y, z'

loop_
  _atom_site_label
  _atom_site_occupancy
  _atom_site_fract_x
  _atom_site_fract_y
  _atom_site_fract_z
  _atom_site_thermal_displace_type
  _atom_site_B_iso_or_equiv
  _atom_site_type_symbol
  Zr1      1.0000 0.13573  0.02133  0.28699  Biso   1.000  Zr
  Zr2      1.0000 0.12721  0.22741  0.77642  Biso   1.000  Zr
  Zr3      1.0000 0.34134  0.28267  0.15998  Biso   1.000  Zr
  Zr4      1.0000 0.35502  0.49640  0.71031  Biso   1.000  Zr
  O1       1.0000 0.03907  0.16856  0.15040  Biso   1.000  O
  O2       1.0000 0.02791  0.08287  0.64933  Biso   1.000  O
  O3       1.0000 0.46042  0.42870  0.34998  Biso   1.000  O
  O4       1.0000 0.47299  0.36605  0.88084  Biso   1.000  O
  O5       1.0000 0.26888  0.12477  0.45503  Biso   1.000  O
  O6       1.0000 0.28317  0.12980  0.93807  Biso   1.000  O
  O7       1.0000 0.20702  0.38970  0.00140  Biso   1.000  O
  O8       1.0000 0.22667  0.36839  0.51172  Biso   1.000  O
  Zr5      1.0000 0.13462  0.52406  0.29624  Biso   1.000  Zr
  Zr6      1.0000 0.13237  0.72909  0.79540  Biso   1.000  Zr
  Zr7      1.0000 0.35895  0.77217  0.21142  Biso   1.000  Zr
  Zr8      1.0000 0.36091  0.96543  0.70829  Biso   1.000  Zr
  O9       1.0000 0.02855  0.66356  0.15732  Biso   1.000  O
  O10      1.0000 0.02914  0.58459  0.65905  Biso   1.000  O
  O11      1.0000 0.46622  0.91303  0.35011  Biso   1.000  O
  O12      1.0000 0.46374  0.82887  0.85286  Biso   1.000  O
  O13      1.0000 0.27026  0.63030  0.48344  Biso   1.000  O
  O14      1.0000 0.27008  0.63026  0.98736  Biso   1.000  O
  O15      1.0000 0.22256  0.88124  0.02317  Biso   1.000  O
  O16      1.0000 0.22049  0.86836  0.52065  Biso   1.000  O
  Zr9      1.0000 0.64295  0.01399  0.30168  Biso   1.000  Zr
  Zr10     1.0000 0.65621  0.22402  0.83505  Biso   1.000  Zr
  Zr11     1.0000 0.86166  0.27120  0.22689  Biso   1.000  Zr
  Zr12     1.0000 0.85634  0.47799  0.71703  Biso   1.000  Zr
  O17      1.0000 0.53356  0.16366  0.15862  Biso   1.000  O
  O18      1.0000 0.54944  0.06058  0.67830  Biso   1.000  O
  O19      1.0000 0.96507  0.41393  0.35816  Biso   1.000  O
  O20      1.0000 0.95754  0.33043  0.84793  Biso   1.000  O
  O21      1.0000 0.77976  0.12765  0.49491  Biso   1.000  O
  O22      1.0000 0.78736  0.11433  0.00604  Biso   1.000  O
  O23      1.0000 0.72578  0.37831  0.04316  Biso   1.000  O
  O24      1.0000 0.71851  0.36800  0.53803  Biso   1.000  O
  Zr13     1.0000 0.63499  0.52484  0.29834  Biso   1.000  Zr
  Zr14     1.0000 0.63805  0.72706  0.79931  Biso   1.000  Zr
  Zr15     1.0000 0.85945  0.77025  0.21575  Biso   1.000  Zr
  Zr16     1.0000 0.85703  0.97507  0.71422  Biso   1.000  Zr
  O25      1.0000 0.53121  0.66701  0.15779  Biso   1.000  O
  O26      1.0000 0.52956  0.59466  0.65062  Biso   1.000  O
  O27      1.0000 0.96503  0.91180  0.35434  Biso   1.000  O
  O28      1.0000 0.96484  0.83543  0.85511  Biso   1.000  O
  O29      1.0000 0.77455  0.62598  0.48688  Biso   1.000  O
  O30      1.0000 0.77241  0.61994  0.98502  Biso   1.000  O
  O31      1.0000 0.72313  0.87340  0.02695  Biso   1.000  O
  O32      1.0000 0.72453  0.86724  0.52372  Biso   1.000  O
  Sr1      1.0000 0.44905  0.23569  0.56035  Biso   1.000  Sr
