data_image0
_cell_length_a       10.1717
_cell_length_b       5.18635
_cell_length_c       10.5268
_cell_angle_alpha    90.0169
_cell_angle_beta     90.5696
_cell_angle_gamma    90.3248

_symmetry_space_group_name_H-M    "P 1"
_symmetry_int_tables_number       1

loop_
  _symmetry_equiv_pos_as_xyz
  'x, y, z'

loop_
  _atom_site_label
  _atom_site_occupancy
  _atom_site_fract_x
  _atom_site_fract_y
  _atom_site_fract_z
  _atom_site_thermal_displace_type
  _atom_site_B_iso_or_equiv
  _atom_site_type_symbol
  Sr1      1.0000 0.12753  0.01523  0.16102  Biso   1.000  Sr
  Zr1      1.0000 0.13991  0.04173  0.67102  Biso   1.000  Zr
  Zr2      1.0000 0.14089  0.45117  0.42005  Biso   1.000  Zr
  Zr3      1.0000 0.14378  0.46341  0.91905  Biso   1.000  Zr
  Zr4      1.0000 0.36097  0.52694  0.16828  Biso   1.000  Zr
  Zr5      1.0000 0.36028  0.54060  0.66989  Biso   1.000  Zr
  Zr6      1.0000 0.35744  0.95595  0.41855  Biso   1.000  Zr
  Zr7      1.0000 0.36454  0.95953  0.91978  Biso   1.000  Zr
  Zr8      1.0000 0.64273  0.03929  0.07913  Biso   1.000  Zr
  Zr9      1.0000 0.63751  0.03903  0.58152  Biso   1.000  Zr
  Zr10     1.0000 0.63766  0.45509  0.33213  Biso   1.000  Zr
  Zr11     1.0000 0.63967  0.45907  0.82810  Biso   1.000  Zr
  Zr12     1.0000 0.86161  0.53027  0.07570  Biso   1.000  Zr
  Zr13     1.0000 0.86322  0.54191  0.58116  Biso   1.000  Zr
  Zr14     1.0000 0.85535  0.96585  0.33796  Biso   1.000  Zr
  Zr15     1.0000 0.86229  0.95804  0.82981  Biso   1.000  Zr
  O1       1.0000 0.04281  0.41309  0.09259  Biso   1.000  O
  O2       1.0000 0.03657  0.34896  0.59463  Biso   1.000  O
  O3       1.0000 0.02406  0.16090  0.35543  Biso   1.000  O
  O4       1.0000 0.03789  0.15177  0.84315  Biso   1.000  O
  O5       1.0000 0.47609  0.81871  0.08016  Biso   1.000  O
  O6       1.0000 0.46915  0.82016  0.57909  Biso   1.000  O
  O7       1.0000 0.47588  0.68454  0.32733  Biso   1.000  O
  O8       1.0000 0.47162  0.67485  0.82741  Biso   1.000  O
  O9       1.0000 0.28120  0.24605  0.30150  Biso   1.000  O
  O10      1.0000 0.27583  0.25048  0.79143  Biso   1.000  O
  O11      1.0000 0.28500  0.25062  0.03524  Biso   1.000  O
  O12      1.0000 0.27440  0.24710  0.54555  Biso   1.000  O
  O13      1.0000 0.23509  0.72067  0.29970  Biso   1.000  O
  O14      1.0000 0.22635  0.74954  0.79061  Biso   1.000  O
  O15      1.0000 0.24592  0.72788  0.03204  Biso   1.000  O
  O16      1.0000 0.22392  0.75223  0.54480  Biso   1.000  O
  O17      1.0000 0.53278  0.31729  0.16949  Biso   1.000  O
  O18      1.0000 0.53081  0.32283  0.66771  Biso   1.000  O
  O19      1.0000 0.53090  0.17191  0.41949  Biso   1.000  O
  O20      1.0000 0.53591  0.17356  0.91792  Biso   1.000  O
  O21      1.0000 0.91330  0.87271  0.15310  Biso   1.000  O
  O22      1.0000 0.96427  0.84718  0.66058  Biso   1.000  O
  O23      1.0000 0.96530  0.66113  0.41027  Biso   1.000  O
  O24      1.0000 0.96459  0.65594  0.90443  Biso   1.000  O
  O25      1.0000 0.77703  0.24448  0.95492  Biso   1.000  O
  O26      1.0000 0.77159  0.25033  0.46060  Biso   1.000  O
  O27      1.0000 0.77381  0.26606  0.21066  Biso   1.000  O
  O28      1.0000 0.77542  0.25273  0.70683  Biso   1.000  O
  O29      1.0000 0.72477  0.74642  0.95384  Biso   1.000  O
  O30      1.0000 0.72540  0.74901  0.45922  Biso   1.000  O
  O31      1.0000 0.71056  0.75823  0.21186  Biso   1.000  O
  O32      1.0000 0.72644  0.74956  0.70527  Biso   1.000  O
