data_image0
_cell_length_a       10.2771
_cell_length_b       5.2001
_cell_length_c       10.5124
_cell_angle_alpha    90.0382
_cell_angle_beta     80.6878
_cell_angle_gamma    90.3791

_symmetry_space_group_name_H-M    "P 1"
_symmetry_int_tables_number       1

loop_
  _symmetry_equiv_pos_as_xyz
  'x, y, z'

loop_
  _atom_site_label
  _atom_site_occupancy
  _atom_site_fract_x
  _atom_site_fract_y
  _atom_site_fract_z
  _atom_site_thermal_displace_type
  _atom_site_B_iso_or_equiv
  _atom_site_type_symbol
  Sr1      1.0000 0.12859  0.01749  0.13851  Biso   1.000  Sr
  Zr1      1.0000 0.14020  0.04293  0.64484  Biso   1.000  Zr
  Zr2      1.0000 0.64159  0.03536  0.14597  Biso   1.000  Zr
  Zr3      1.0000 0.64008  0.04117  0.64737  Biso   1.000  Zr
  Zr4      1.0000 0.14059  0.45050  0.39373  Biso   1.000  Zr
  Zr5      1.0000 0.14284  0.46490  0.89368  Biso   1.000  Zr
  Zr6      1.0000 0.63390  0.45529  0.39879  Biso   1.000  Zr
  Zr7      1.0000 0.64353  0.45833  0.89517  Biso   1.000  Zr
  Zr8      1.0000 0.36232  0.52651  0.10269  Biso   1.000  Zr
  Zr9      1.0000 0.35889  0.54308  0.60351  Biso   1.000  Zr
  Zr10     1.0000 0.86031  0.53187  0.10238  Biso   1.000  Zr
  Zr11     1.0000 0.86354  0.54306  0.60507  Biso   1.000  Zr
  Zr12     1.0000 0.35809  0.95603  0.35106  Biso   1.000  Zr
  Zr13     1.0000 0.36363  0.95782  0.85326  Biso   1.000  Zr
  Zr14     1.0000 0.85457  0.96281  0.36195  Biso   1.000  Zr
  Zr15     1.0000 0.86336  0.95759  0.85494  Biso   1.000  Zr
  O1       1.0000 0.04346  0.41606  0.08568  Biso   1.000  O
  O2       1.0000 0.03858  0.35206  0.58791  Biso   1.000  O
  O3       1.0000 0.53815  0.32912  0.07836  Biso   1.000  O
  O4       1.0000 0.53146  0.33164  0.58180  Biso   1.000  O
  O5       1.0000 0.02408  0.16101  0.35046  Biso   1.000  O
  O6       1.0000 0.04016  0.14915  0.83719  Biso   1.000  O
  O7       1.0000 0.53402  0.15966  0.33019  Biso   1.000  O
  O8       1.0000 0.53913  0.16364  0.82869  Biso   1.000  O
  O9       1.0000 0.46885  0.82910  0.16866  Biso   1.000  O
  O10      1.0000 0.46748  0.83180  0.67019  Biso   1.000  O
  O11      1.0000 0.91490  0.87415  0.16687  Biso   1.000  O
  O12      1.0000 0.96368  0.84985  0.66570  Biso   1.000  O
  O13      1.0000 0.46417  0.66288  0.42185  Biso   1.000  O
  O14      1.0000 0.47837  0.67290  0.91917  Biso   1.000  O
  O15      1.0000 0.96420  0.66008  0.41544  Biso   1.000  O
  O16      1.0000 0.96145  0.65078  0.90964  Biso   1.000  O
  O17      1.0000 0.28235  0.25205  0.24587  Biso   1.000  O
  O18      1.0000 0.27608  0.25904  0.73753  Biso   1.000  O
  O19      1.0000 0.77078  0.26803  0.24587  Biso   1.000  O
  O20      1.0000 0.77863  0.25870  0.74101  Biso   1.000  O
  O21      1.0000 0.27424  0.24080  0.49139  Biso   1.000  O
  O22      1.0000 0.28594  0.24712  0.97897  Biso   1.000  O
  O23      1.0000 0.77052  0.24525  0.49532  Biso   1.000  O
  O24      1.0000 0.77696  0.23724  0.99138  Biso   1.000  O
  O25      1.0000 0.24480  0.73399  0.99218  Biso   1.000  O
  O26      1.0000 0.22412  0.75914  0.50826  Biso   1.000  O
  O27      1.0000 0.72502  0.75425  0.00822  Biso   1.000  O
  O28      1.0000 0.72474  0.75688  0.51236  Biso   1.000  O
  O29      1.0000 0.23533  0.71569  0.26075  Biso   1.000  O
  O30      1.0000 0.22491  0.74541  0.75429  Biso   1.000  O
  O31      1.0000 0.70921  0.74569  0.26781  Biso   1.000  O
  O32      1.0000 0.72818  0.74209  0.75809  Biso   1.000  O
