data_image0
_cell_length_a       10.1185
_cell_length_b       10.1384
_cell_length_c       5.13184
_cell_angle_alpha    89.9994
_cell_angle_beta     89.9996
_cell_angle_gamma    90.0001

_symmetry_space_group_name_H-M    "P 1"
_symmetry_int_tables_number       1

loop_
  _symmetry_equiv_pos_as_xyz
  'x, y, z'

loop_
  _atom_site_label
  _atom_site_occupancy
  _atom_site_fract_x
  _atom_site_fract_y
  _atom_site_fract_z
  _atom_site_thermal_displace_type
  _atom_site_B_iso_or_equiv
  _atom_site_type_symbol
  Zr1      1.0000 0.12508  0.98241  0.21334  Biso   1.000  Zr
  Zr2      1.0000 0.12508  0.24987  0.71333  Biso   1.000  Zr
  Zr3      1.0000 0.39799  0.24987  0.21334  Biso   1.000  Zr
  Zr4      1.0000 0.37252  0.49903  0.71338  Biso   1.000  Zr
  O1       1.0000 0.00418  0.12901  0.47033  Biso   1.000  O
  O2       1.0000 0.99933  0.12285  0.98446  Biso   1.000  O
  O3       1.0000 0.49604  0.38893  0.44468  Biso   1.000  O
  O4       1.0000 0.50095  0.36974  0.93058  Biso   1.000  O
  O5       1.0000 0.25082  0.12284  0.44220  Biso   1.000  O
  O6       1.0000 0.24597  0.12901  0.95633  Biso   1.000  O
  O7       1.0000 0.25083  0.37689  0.98444  Biso   1.000  O
  O8       1.0000 0.24598  0.37073  0.47030  Biso   1.000  O
  Zr5      1.0000 0.12509  0.51732  0.21334  Biso   1.000  Zr
  Zr6      1.0000 0.12508  0.74986  0.71335  Biso   1.000  Zr
  Zr7      1.0000 0.38034  0.74987  0.21336  Biso   1.000  Zr
  Zr8      1.0000 0.37252  0.00071  0.71332  Biso   1.000  Zr
  O9       1.0000 0.00574  0.62867  0.49237  Biso   1.000  O
  O10      1.0000 0.99091  0.62325  0.98894  Biso   1.000  O
  O11      1.0000 0.49129  0.88568  0.42735  Biso   1.000  O
  O12      1.0000 0.50392  0.86679  0.92874  Biso   1.000  O
  O13      1.0000 0.25926  0.62325  0.43775  Biso   1.000  O
  O14      1.0000 0.24443  0.62867  0.93432  Biso   1.000  O
  O15      1.0000 0.25927  0.87649  0.98896  Biso   1.000  O
  O16      1.0000 0.24442  0.87106  0.49239  Biso   1.000  O
  Zr9      1.0000 0.62508  0.00153  0.21334  Biso   1.000  Zr
  Zr10     1.0000 0.62508  0.24986  0.71334  Biso   1.000  Zr
  Zr11     1.0000 0.85218  0.24987  0.21335  Biso   1.000  Zr
  Zr12     1.0000 0.87764  0.49903  0.71331  Biso   1.000  Zr
  O17      1.0000 0.50094  0.13000  0.49610  Biso   1.000  O
  O18      1.0000 0.49604  0.11080  0.98200  Biso   1.000  O
  O19      1.0000 0.99934  0.37689  0.44221  Biso   1.000  O
  O20      1.0000 0.00419  0.37074  0.95634  Biso   1.000  O
  O21      1.0000 0.75412  0.11080  0.44469  Biso   1.000  O
  O22      1.0000 0.74921  0.12999  0.93058  Biso   1.000  O
  O23      1.0000 0.75413  0.38893  0.98200  Biso   1.000  O
  O24      1.0000 0.74922  0.36974  0.49611  Biso   1.000  O
  Zr13     1.0000 0.62509  0.49820  0.21334  Biso   1.000  Zr
  Zr14     1.0000 0.62508  0.74987  0.71334  Biso   1.000  Zr
  Zr15     1.0000 0.86983  0.74987  0.21334  Biso   1.000  Zr
  Zr16     1.0000 0.87764  0.00072  0.71338  Biso   1.000  Zr
  O25      1.0000 0.50393  0.63294  0.49795  Biso   1.000  O
  O26      1.0000 0.49129  0.61405  0.99935  Biso   1.000  O
  O27      1.0000 0.99090  0.87649  0.43773  Biso   1.000  O
  O28      1.0000 0.00574  0.87107  0.93429  Biso   1.000  O
  O29      1.0000 0.75888  0.61405  0.42732  Biso   1.000  O
  O30      1.0000 0.74625  0.63294  0.92871  Biso   1.000  O
  O31      1.0000 0.75887  0.88568  0.99934  Biso   1.000  O
  O32      1.0000 0.74624  0.86679  0.49794  Biso   1.000  O
  Ta1      1.0000 0.12508  0.24987  0.21333  Biso   1.000  Ta
