data_image0
_cell_length_a       10.0623
_cell_length_b       5.13175
_cell_length_c       10.5007
_cell_angle_alpha    89.9097
_cell_angle_beta     89.8649
_cell_angle_gamma    89.9521

_symmetry_space_group_name_H-M    "P 1"
_symmetry_int_tables_number       1

loop_
  _symmetry_equiv_pos_as_xyz
  'x, y, z'

loop_
  _atom_site_label
  _atom_site_occupancy
  _atom_site_fract_x
  _atom_site_fract_y
  _atom_site_fract_z
  _atom_site_thermal_displace_type
  _atom_site_B_iso_or_equiv
  _atom_site_type_symbol
  Tc1      1.0000 0.13942  0.04358  0.17586  Biso   1.000  Tc
  Zr1      1.0000 0.13900  0.46068  0.42008  Biso   1.000  Zr
  Zr2      1.0000 0.35691  0.54793  0.17171  Biso   1.000  Zr
  Zr3      1.0000 0.36008  0.96002  0.42091  Biso   1.000  Zr
  Zr4      1.0000 0.63825  0.04429  0.07832  Biso   1.000  Zr
  Zr5      1.0000 0.63779  0.45823  0.32753  Biso   1.000  Zr
  Zr6      1.0000 0.86670  0.54047  0.07955  Biso   1.000  Zr
  Zr7      1.0000 0.86195  0.96006  0.32704  Biso   1.000  Zr
  O1       1.0000 0.03390  0.31790  0.08422  Biso   1.000  O
  O2       1.0000 0.03619  0.17324  0.32344  Biso   1.000  O
  O3       1.0000 0.46839  0.82626  0.08259  Biso   1.000  O
  O4       1.0000 0.46522  0.67099  0.33322  Biso   1.000  O
  O5       1.0000 0.27481  0.24679  0.29447  Biso   1.000  O
  O6       1.0000 0.27132  0.24282  0.05285  Biso   1.000  O
  O7       1.0000 0.22046  0.75502  0.29372  Biso   1.000  O
  O8       1.0000 0.22043  0.75344  0.04540  Biso   1.000  O
  O9       1.0000 0.53117  0.33167  0.16725  Biso   1.000  O
  O10      1.0000 0.53227  0.17159  0.41700  Biso   1.000  O
  O11      1.0000 0.97964  0.83085  0.16605  Biso   1.000  O
  O12      1.0000 0.96785  0.67424  0.41628  Biso   1.000  O
  O13      1.0000 0.77669  0.24732  0.45320  Biso   1.000  O
  O14      1.0000 0.77541  0.25124  0.20444  Biso   1.000  O
  O15      1.0000 0.72381  0.74805  0.45442  Biso   1.000  O
  O16      1.0000 0.73046  0.75224  0.20482  Biso   1.000  O
  Zr8      1.0000 0.13859  0.04224  0.67185  Biso   1.000  Zr
  Zr9      1.0000 0.13872  0.45367  0.92409  Biso   1.000  Zr
  Zr10     1.0000 0.36121  0.54324  0.67195  Biso   1.000  Zr
  Zr11     1.0000 0.35953  0.95559  0.92325  Biso   1.000  Zr
  Zr12     1.0000 0.63845  0.04257  0.57881  Biso   1.000  Zr
  Zr13     1.0000 0.63894  0.45899  0.82986  Biso   1.000  Zr
  Zr14     1.0000 0.86056  0.54212  0.57793  Biso   1.000  Zr
  Zr15     1.0000 0.86109  0.95689  0.82902  Biso   1.000  Zr
  O17      1.0000 0.02969  0.31935  0.57629  Biso   1.000  O
  O18      1.0000 0.03025  0.17520  0.82956  Biso   1.000  O
  O19      1.0000 0.46698  0.83096  0.58350  Biso   1.000  O
  O20      1.0000 0.46719  0.67161  0.83385  Biso   1.000  O
  O21      1.0000 0.27588  0.24785  0.79781  Biso   1.000  O
  O22      1.0000 0.27579  0.25342  0.54570  Biso   1.000  O
  O23      1.0000 0.22390  0.74769  0.79510  Biso   1.000  O
  O24      1.0000 0.22379  0.75128  0.54432  Biso   1.000  O
  O25      1.0000 0.53253  0.33031  0.66755  Biso   1.000  O
  O26      1.0000 0.53062  0.17343  0.91846  Biso   1.000  O
  O27      1.0000 0.96900  0.82236  0.66831  Biso   1.000  O
  O28      1.0000 0.96869  0.66905  0.91848  Biso   1.000  O
  O29      1.0000 0.77590  0.25034  0.95518  Biso   1.000  O
  O30      1.0000 0.77574  0.25119  0.70465  Biso   1.000  O
  O31      1.0000 0.72480  0.74952  0.95523  Biso   1.000  O
  O32      1.0000 0.72404  0.75220  0.70489  Biso   1.000  O
