data_image0
_cell_length_a       10.2488
_cell_length_b       10.3721
_cell_length_c       5.26346
_cell_angle_alpha    90.063
_cell_angle_beta     80.455
_cell_angle_gamma    90.0462

_symmetry_space_group_name_H-M    "P 1"
_symmetry_int_tables_number       1

loop_
  _symmetry_equiv_pos_as_xyz
  'x, y, z'

loop_
  _atom_site_label
  _atom_site_occupancy
  _atom_site_fract_x
  _atom_site_fract_y
  _atom_site_fract_z
  _atom_site_thermal_displace_type
  _atom_site_B_iso_or_equiv
  _atom_site_type_symbol
  Tl1      1.0000 0.13506  0.01550  0.29036  Biso   1.000  Tl
  Zr1      1.0000 0.13961  0.52124  0.28932  Biso   1.000  Zr
  Zr2      1.0000 0.63952  0.02155  0.29305  Biso   1.000  Zr
  Zr3      1.0000 0.63829  0.51956  0.29039  Biso   1.000  Zr
  Zr4      1.0000 0.14004  0.22958  0.78920  Biso   1.000  Zr
  Zr5      1.0000 0.14051  0.72838  0.79061  Biso   1.000  Zr
  Zr6      1.0000 0.63865  0.22963  0.79239  Biso   1.000  Zr
  Zr7      1.0000 0.63821  0.72796  0.78967  Biso   1.000  Zr
  Zr8      1.0000 0.35938  0.26922  0.20769  Biso   1.000  Zr
  Zr9      1.0000 0.36289  0.77057  0.20970  Biso   1.000  Zr
  Zr10     1.0000 0.86042  0.27168  0.20905  Biso   1.000  Zr
  Zr11     1.0000 0.85930  0.76880  0.20820  Biso   1.000  Zr
  Zr12     1.0000 0.36070  0.47811  0.70765  Biso   1.000  Zr
  Zr13     1.0000 0.36180  0.97970  0.70773  Biso   1.000  Zr
  Zr14     1.0000 0.86089  0.47912  0.70825  Biso   1.000  Zr
  Zr15     1.0000 0.85712  0.97859  0.71681  Biso   1.000  Zr
  O1       1.0000 0.03648  0.18225  0.15993  Biso   1.000  O
  O2       1.0000 0.03542  0.66978  0.16206  Biso   1.000  O
  O3       1.0000 0.53472  0.16760  0.15875  Biso   1.000  O
  O4       1.0000 0.53489  0.66548  0.15698  Biso   1.000  O
  O5       1.0000 0.02897  0.08168  0.68884  Biso   1.000  O
  O6       1.0000 0.03489  0.58159  0.65921  Biso   1.000  O
  O7       1.0000 0.53648  0.08247  0.65842  Biso   1.000  O
  O8       1.0000 0.53347  0.58260  0.65617  Biso   1.000  O
  O9       1.0000 0.46583  0.41555  0.34238  Biso   1.000  O
  O10      1.0000 0.46797  0.91695  0.34124  Biso   1.000  O
  O11      1.0000 0.96320  0.42220  0.33717  Biso   1.000  O
  O12      1.0000 0.94895  0.91935  0.34481  Biso   1.000  O
  O13      1.0000 0.46713  0.33431  0.84245  Biso   1.000  O
  O14      1.0000 0.46815  0.83302  0.84286  Biso   1.000  O
  O15      1.0000 0.96405  0.33358  0.83702  Biso   1.000  O
  O16      1.0000 0.96503  0.83047  0.83984  Biso   1.000  O
  O17      1.0000 0.28015  0.13032  0.48478  Biso   1.000  O
  O18      1.0000 0.27612  0.62546  0.47886  Biso   1.000  O
  O19      1.0000 0.77542  0.13000  0.48441  Biso   1.000  O
  O20      1.0000 0.77409  0.62813  0.47978  Biso   1.000  O
  O21      1.0000 0.28363  0.12783  0.96394  Biso   1.000  O
  O22      1.0000 0.27569  0.62062  0.98001  Biso   1.000  O
  O23      1.0000 0.77373  0.12195  0.98522  Biso   1.000  O
  O24      1.0000 0.77457  0.62040  0.97934  Biso   1.000  O
  O25      1.0000 0.22537  0.38049  0.01653  Biso   1.000  O
  O26      1.0000 0.23139  0.87385  0.01001  Biso   1.000  O
  O27      1.0000 0.72412  0.37902  0.01869  Biso   1.000  O
  O28      1.0000 0.72386  0.87792  0.02044  Biso   1.000  O
  O29      1.0000 0.22403  0.37152  0.51612  Biso   1.000  O
  O30      1.0000 0.23161  0.86330  0.52352  Biso   1.000  O
  O31      1.0000 0.72435  0.37179  0.51938  Biso   1.000  O
  O32      1.0000 0.72038  0.87026  0.52274  Biso   1.000  O
