data_image0
_cell_length_a       10.008
_cell_length_b       10.4265
_cell_length_c       10.0489
_cell_angle_alpha    90.2268
_cell_angle_beta     89.7649
_cell_angle_gamma    90.1111

_symmetry_space_group_name_H-M    "P 1"
_symmetry_int_tables_number       1

loop_
  _symmetry_equiv_pos_as_xyz
  'x, y, z'

loop_
  _atom_site_label
  _atom_site_occupancy
  _atom_site_fract_x
  _atom_site_fract_y
  _atom_site_fract_z
  _atom_site_thermal_displace_type
  _atom_site_B_iso_or_equiv
  _atom_site_type_symbol
  V1       1.0000 0.12163  0.02990  0.11646  Biso   1.000  V
  Zr1      1.0000 0.13471  0.01667  0.62666  Biso   1.000  Zr
  Zr2      1.0000 0.13395  0.51428  0.12592  Biso   1.000  Zr
  Zr3      1.0000 0.13459  0.51650  0.62584  Biso   1.000  Zr
  Zr4      1.0000 0.63442  0.01590  0.12501  Biso   1.000  Zr
  Zr5      1.0000 0.63041  0.01421  0.62391  Biso   1.000  Zr
  Zr6      1.0000 0.63355  0.51611  0.12676  Biso   1.000  Zr
  Zr7      1.0000 0.63358  0.51650  0.62484  Biso   1.000  Zr
  Zr8      1.0000 0.13359  0.23128  0.37239  Biso   1.000  Zr
  Zr9      1.0000 0.13351  0.23669  0.87591  Biso   1.000  Zr
  Zr10     1.0000 0.13635  0.73334  0.37739  Biso   1.000  Zr
  Zr11     1.0000 0.13378  0.73649  0.87917  Biso   1.000  Zr
  Zr12     1.0000 0.63382  0.23308  0.37644  Biso   1.000  Zr
  Zr13     1.0000 0.63225  0.23430  0.87406  Biso   1.000  Zr
  Zr14     1.0000 0.63512  0.73586  0.37438  Biso   1.000  Zr
  Zr15     1.0000 0.63181  0.73578  0.87576  Biso   1.000  Zr
  Zr16     1.0000 0.36591  0.26262  0.12393  Biso   1.000  Zr
  Zr17     1.0000 0.36559  0.26606  0.62498  Biso   1.000  Zr
  Zr18     1.0000 0.36460  0.76523  0.12772  Biso   1.000  Zr
  Zr19     1.0000 0.36625  0.76776  0.62849  Biso   1.000  Zr
  Zr20     1.0000 0.86471  0.26635  0.12387  Biso   1.000  Zr
  Zr21     1.0000 0.86596  0.26525  0.62499  Biso   1.000  Zr
  Zr22     1.0000 0.87089  0.76414  0.12157  Biso   1.000  Zr
  Zr23     1.0000 0.86740  0.76596  0.62491  Biso   1.000  Zr
  Zr24     1.0000 0.36714  0.48306  0.37562  Biso   1.000  Zr
  Zr25     1.0000 0.36598  0.48591  0.87565  Biso   1.000  Zr
  Zr26     1.0000 0.36334  0.98206  0.37258  Biso   1.000  Zr
  Zr27     1.0000 0.36011  0.98502  0.88250  Biso   1.000  Zr
  Zr28     1.0000 0.86631  0.48397  0.37576  Biso   1.000  Zr
  Zr29     1.0000 0.86528  0.48543  0.87449  Biso   1.000  Zr
  Zr30     1.0000 0.86850  0.98591  0.37598  Biso   1.000  Zr
  Zr31     1.0000 0.86499  0.98538  0.87366  Biso   1.000  Zr
  O1       1.0000 0.03665  0.18204  0.18824  Biso   1.000  O
  O2       1.0000 0.03310  0.18252  0.69916  Biso   1.000  O
  O3       1.0000 0.03657  0.68405  0.19478  Biso   1.000  O
  O4       1.0000 0.03612  0.68481  0.69495  Biso   1.000  O
  O5       1.0000 0.53331  0.18218  0.19750  Biso   1.000  O
  O6       1.0000 0.53545  0.18464  0.69276  Biso   1.000  O
  O7       1.0000 0.53628  0.68402  0.19600  Biso   1.000  O
  O8       1.0000 0.53502  0.68372  0.69574  Biso   1.000  O
  O9       1.0000 0.03525  0.06685  0.44765  Biso   1.000  O
  O10      1.0000 0.03480  0.06666  0.95356  Biso   1.000  O
  O11      1.0000 0.03555  0.56485  0.44560  Biso   1.000  O
  O12      1.0000 0.03370  0.56766  0.94642  Biso   1.000  O
  O13      1.0000 0.53540  0.06567  0.44359  Biso   1.000  O
  O14      1.0000 0.53160  0.06863  0.94818  Biso   1.000  O
  O15      1.0000 0.53727  0.56674  0.44305  Biso   1.000  O
  O16      1.0000 0.53516  0.56725  0.94526  Biso   1.000  O
  O17      1.0000 0.46453  0.43223  0.19340  Biso   1.000  O
  O18      1.0000 0.46364  0.43451  0.69401  Biso   1.000  O
  O19      1.0000 0.47061  0.93071  0.19752  Biso   1.000  O
  O20      1.0000 0.46339  0.93469  0.69979  Biso   1.000  O
  O21      1.0000 0.96542  0.43156  0.19560  Biso   1.000  O
  O22      1.0000 0.96433  0.43362  0.69369  Biso   1.000  O
  O23      1.0000 0.98720  0.93862  0.18591  Biso   1.000  O
  O24      1.0000 0.96472  0.93467  0.69423  Biso   1.000  O
  O25      1.0000 0.46556  0.31661  0.44520  Biso   1.000  O
  O26      1.0000 0.46247  0.31620  0.94327  Biso   1.000  O
  O27      1.0000 0.46803  0.81812  0.45009  Biso   1.000  O
  O28      1.0000 0.46001  0.81752  0.94482  Biso   1.000  O
  O29      1.0000 0.96428  0.31403  0.44269  Biso   1.000  O
  O30      1.0000 0.96340  0.31751  0.94375  Biso   1.000  O
  O31      1.0000 0.96564  0.81762  0.44197  Biso   1.000  O
  O32      1.0000 0.96055  0.81617  0.93951  Biso   1.000  O
  O33      1.0000 0.25838  0.10546  0.24013  Biso   1.000  O
  O34      1.0000 0.26973  0.11838  0.74927  Biso   1.000  O
  O35      1.0000 0.26872  0.61087  0.24942  Biso   1.000  O
  O36      1.0000 0.26909  0.61875  0.75090  Biso   1.000  O
  O37      1.0000 0.77232  0.11613  0.24707  Biso   1.000  O
  O38      1.0000 0.76728  0.11603  0.74743  Biso   1.000  O
  O39      1.0000 0.77149  0.61608  0.24826  Biso   1.000  O
  O40      1.0000 0.76907  0.61759  0.74884  Biso   1.000  O
  O41      1.0000 0.27068  0.13311  0.49549  Biso   1.000  O
  O42      1.0000 0.26347  0.13430  0.99914  Biso   1.000  O
  O43      1.0000 0.27192  0.63259  0.50043  Biso   1.000  O
  O44      1.0000 0.26850  0.63413  0.00012  Biso   1.000  O
  O45      1.0000 0.77054  0.13213  0.49769  Biso   1.000  O
  O46      1.0000 0.76838  0.13408  0.99687  Biso   1.000  O
  O47      1.0000 0.76962  0.63419  0.49856  Biso   1.000  O
  O48      1.0000 0.76877  0.63470  0.99902  Biso   1.000  O
  O49      1.0000 0.22969  0.38203  0.49834  Biso   1.000  O
  O50      1.0000 0.23013  0.38417  0.99868  Biso   1.000  O
  O51      1.0000 0.23075  0.88287  0.50391  Biso   1.000  O
  O52      1.0000 0.22245  0.88964  0.01139  Biso   1.000  O
  O53      1.0000 0.73094  0.38277  0.49922  Biso   1.000  O
  O54      1.0000 0.72953  0.38372  0.99851  Biso   1.000  O
  O55      1.0000 0.73265  0.88431  0.49739  Biso   1.000  O
  O56      1.0000 0.72946  0.88452  0.99739  Biso   1.000  O
  O57      1.0000 0.23226  0.36203  0.24815  Biso   1.000  O
  O58      1.0000 0.22954  0.36815  0.74899  Biso   1.000  O
  O59      1.0000 0.24208  0.85533  0.25916  Biso   1.000  O
  O60      1.0000 0.22882  0.86912  0.75454  Biso   1.000  O
  O61      1.0000 0.72960  0.36627  0.24879  Biso   1.000  O
  O62      1.0000 0.72988  0.36710  0.74844  Biso   1.000  O
  O63      1.0000 0.74215  0.86715  0.24648  Biso   1.000  O
  O64      1.0000 0.73007  0.86678  0.74779  Biso   1.000  O
