data_image0
_cell_length_a       10.1041
_cell_length_b       5.09646
_cell_length_c       10.1041
_cell_angle_alpha    89.9999
_cell_angle_beta     89.9994
_cell_angle_gamma    90.0002

_symmetry_space_group_name_H-M    "P 1"
_symmetry_int_tables_number       1

loop_
  _symmetry_equiv_pos_as_xyz
  'x, y, z'

loop_
  _atom_site_label
  _atom_site_occupancy
  _atom_site_fract_x
  _atom_site_fract_y
  _atom_site_fract_z
  _atom_site_thermal_displace_type
  _atom_site_B_iso_or_equiv
  _atom_site_type_symbol
  Zr1      1.0000 0.12540  0.00012  0.12539  Biso   1.000  Zr
  Zr2      1.0000 0.12540  0.50015  0.38914  Biso   1.000  Zr
  Zr3      1.0000 0.38914  0.50015  0.12540  Biso   1.000  Zr
  Zr4      1.0000 0.37367  0.99668  0.37367  Biso   1.000  Zr
  O1       1.0000 0.00424  0.27781  0.00424  Biso   1.000  O
  O2       1.0000 0.00289  0.24108  0.24790  Biso   1.000  O
  O3       1.0000 0.00424  0.72245  0.24655  Biso   1.000  O
  O4       1.0000 0.00289  0.75918  0.00289  Biso   1.000  O
  O5       1.0000 0.24655  0.27781  0.24655  Biso   1.000  O
  O6       1.0000 0.24790  0.24109  0.00289  Biso   1.000  O
  O7       1.0000 0.24655  0.72244  0.00424  Biso   1.000  O
  O8       1.0000 0.24790  0.75918  0.24790  Biso   1.000  O
  Zr5      1.0000 0.12540  0.00015  0.62540  Biso   1.000  Zr
  Zr6      1.0000 0.12539  0.50015  0.86165  Biso   1.000  Zr
  Zr7      1.0000 0.37789  0.50016  0.62540  Biso   1.000  Zr
  Zr8      1.0000 0.37367  0.00363  0.87712  Biso   1.000  Zr
  O9       1.0000 0.99496  0.27650  0.50205  Biso   1.000  O
  O10      1.0000 0.00270  0.21838  0.75188  Biso   1.000  O
  O11      1.0000 0.99496  0.72381  0.74873  Biso   1.000  O
  O12      1.0000 0.00271  0.78193  0.49891  Biso   1.000  O
  O13      1.0000 0.25583  0.27650  0.74874  Biso   1.000  O
  O14      1.0000 0.24809  0.21838  0.49891  Biso   1.000  O
  O15      1.0000 0.25583  0.72381  0.50206  Biso   1.000  O
  O16      1.0000 0.24808  0.78193  0.75188  Biso   1.000  O
  Zr9      1.0000 0.62540  0.00015  0.12539  Biso   1.000  Zr
  Zr10     1.0000 0.62540  0.50015  0.37789  Biso   1.000  Zr
  Zr11     1.0000 0.86165  0.50015  0.12539  Biso   1.000  Zr
  Zr12     1.0000 0.87712  0.00363  0.37368  Biso   1.000  Zr
  O17      1.0000 0.50205  0.27650  0.99496  Biso   1.000  O
  O18      1.0000 0.49891  0.21838  0.24809  Biso   1.000  O
  O19      1.0000 0.50206  0.72381  0.25583  Biso   1.000  O
  O20      1.0000 0.49891  0.78193  0.00271  Biso   1.000  O
  O21      1.0000 0.74874  0.27650  0.25583  Biso   1.000  O
  O22      1.0000 0.75188  0.21839  0.00270  Biso   1.000  O
  O23      1.0000 0.74873  0.72380  0.99496  Biso   1.000  O
  O24      1.0000 0.75188  0.78193  0.24808  Biso   1.000  O
  Zr13     1.0000 0.62540  0.00016  0.62540  Biso   1.000  Zr
  Zr14     1.0000 0.62539  0.50016  0.87291  Biso   1.000  Zr
  Zr15     1.0000 0.87291  0.50016  0.62539  Biso   1.000  Zr
  Zr16     1.0000 0.87712  0.99668  0.87712  Biso   1.000  Zr
  O25      1.0000 0.49723  0.28670  0.49723  Biso   1.000  O
  O26      1.0000 0.50196  0.21189  0.74883  Biso   1.000  O
  O27      1.0000 0.49723  0.71363  0.75357  Biso   1.000  O
  O28      1.0000 0.50196  0.78843  0.50197  Biso   1.000  O
  O29      1.0000 0.75356  0.28670  0.75356  Biso   1.000  O
  O30      1.0000 0.74883  0.21190  0.50196  Biso   1.000  O
  O31      1.0000 0.75357  0.71362  0.49722  Biso   1.000  O
  O32      1.0000 0.74883  0.78842  0.74883  Biso   1.000  O
  V1       1.0000 0.12540  0.50011  0.12540  Biso   1.000  V
