data_image0
_cell_length_a       5.13394
_cell_length_b       10.3606
_cell_length_c       10.5279
_cell_angle_alpha    90.0673
_cell_angle_beta     80.2092
_cell_angle_gamma    90.109

_symmetry_space_group_name_H-M    "P 1"
_symmetry_int_tables_number       1

loop_
  _symmetry_equiv_pos_as_xyz
  'x, y, z'

loop_
  _atom_site_label
  _atom_site_occupancy
  _atom_site_fract_x
  _atom_site_fract_y
  _atom_site_fract_z
  _atom_site_thermal_displace_type
  _atom_site_B_iso_or_equiv
  _atom_site_type_symbol
  Y1       1.0000 0.27956  0.01758  0.14512  Biso   1.000  Y
  Zr1      1.0000 0.27975  0.02151  0.64585  Biso   1.000  Zr
  Zr2      1.0000 0.27785  0.51947  0.14469  Biso   1.000  Zr
  Zr3      1.0000 0.27849  0.52126  0.64525  Biso   1.000  Zr
  Zr4      1.0000 0.27809  0.22809  0.39589  Biso   1.000  Zr
  Zr5      1.0000 0.27845  0.22988  0.89577  Biso   1.000  Zr
  Zr6      1.0000 0.27738  0.72745  0.39551  Biso   1.000  Zr
  Zr7      1.0000 0.28298  0.72941  0.89489  Biso   1.000  Zr
  Zr8      1.0000 0.71972  0.26944  0.10356  Biso   1.000  Zr
  Zr9      1.0000 0.72065  0.27094  0.60445  Biso   1.000  Zr
  Zr10     1.0000 0.72112  0.76905  0.10495  Biso   1.000  Zr
  Zr11     1.0000 0.72177  0.77181  0.60402  Biso   1.000  Zr
  Zr12     1.0000 0.71902  0.47802  0.35380  Biso   1.000  Zr
  Zr13     1.0000 0.72189  0.47906  0.85386  Biso   1.000  Zr
  Zr14     1.0000 0.71752  0.97892  0.35503  Biso   1.000  Zr
  Zr15     1.0000 0.72347  0.97882  0.85483  Biso   1.000  Zr
  O1       1.0000 0.06710  0.17688  0.07591  Biso   1.000  O
  O2       1.0000 0.06808  0.16944  0.58292  Biso   1.000  O
  O3       1.0000 0.07063  0.66658  0.07851  Biso   1.000  O
  O4       1.0000 0.06699  0.66675  0.58018  Biso   1.000  O
  O5       1.0000 0.05922  0.08412  0.33938  Biso   1.000  O
  O6       1.0000 0.07183  0.08199  0.82973  Biso   1.000  O
  O7       1.0000 0.06501  0.58296  0.32858  Biso   1.000  O
  O8       1.0000 0.06856  0.58328  0.82833  Biso   1.000  O
  O9       1.0000 0.92775  0.41835  0.17039  Biso   1.000  O
  O10      1.0000 0.93168  0.41819  0.66923  Biso   1.000  O
  O11      1.0000 0.90847  0.91603  0.17330  Biso   1.000  O
  O12      1.0000 0.93309  0.91708  0.67082  Biso   1.000  O
  O13      1.0000 0.93092  0.33384  0.42123  Biso   1.000  O
  O14      1.0000 0.93276  0.33564  0.91749  Biso   1.000  O
  O15      1.0000 0.93151  0.83232  0.42181  Biso   1.000  O
  O16      1.0000 0.94279  0.83492  0.92091  Biso   1.000  O
  O17      1.0000 0.55982  0.13307  0.24649  Biso   1.000  O
  O18      1.0000 0.55161  0.12869  0.73984  Biso   1.000  O
  O19      1.0000 0.54892  0.62503  0.23988  Biso   1.000  O
  O20      1.0000 0.55078  0.62921  0.73962  Biso   1.000  O
  O21      1.0000 0.54610  0.12176  0.49350  Biso   1.000  O
  O22      1.0000 0.56121  0.12500  0.98473  Biso   1.000  O
  O23      1.0000 0.54942  0.62128  0.49031  Biso   1.000  O
  O24      1.0000 0.55065  0.61876  0.98968  Biso   1.000  O
  O25      1.0000 0.44938  0.37898  0.00826  Biso   1.000  O
  O26      1.0000 0.44905  0.37898  0.50933  Biso   1.000  O
  O27      1.0000 0.46525  0.87128  0.00254  Biso   1.000  O
  O28      1.0000 0.44907  0.87843  0.51052  Biso   1.000  O
  O29      1.0000 0.44437  0.37221  0.25946  Biso   1.000  O
  O30      1.0000 0.45055  0.37227  0.75825  Biso   1.000  O
  O31      1.0000 0.44789  0.86394  0.26373  Biso   1.000  O
  O32      1.0000 0.45186  0.87203  0.75767  Biso   1.000  O
