data_image0
_cell_length_a       10.0966
_cell_length_b       5.2089
_cell_length_c       10.1242
_cell_angle_alpha    90.1422
_cell_angle_beta     90.2928
_cell_angle_gamma    90.053

_symmetry_space_group_name_H-M    "P 1"
_symmetry_int_tables_number       1

loop_
  _symmetry_equiv_pos_as_xyz
  'x, y, z'

loop_
  _atom_site_label
  _atom_site_occupancy
  _atom_site_fract_x
  _atom_site_fract_y
  _atom_site_fract_z
  _atom_site_thermal_displace_type
  _atom_site_B_iso_or_equiv
  _atom_site_type_symbol
  Y1       1.0000 0.13129  0.02414  0.12135  Biso   1.000  Y
  Zr1      1.0000 0.13372  0.03192  0.62483  Biso   1.000  Zr
  Zr2      1.0000 0.63321  0.02878  0.12461  Biso   1.000  Zr
  Zr3      1.0000 0.63375  0.03089  0.62473  Biso   1.000  Zr
  Zr4      1.0000 0.13512  0.46893  0.37518  Biso   1.000  Zr
  Zr5      1.0000 0.13728  0.47025  0.87332  Biso   1.000  Zr
  Zr6      1.0000 0.63214  0.46714  0.37548  Biso   1.000  Zr
  Zr7      1.0000 0.63567  0.46794  0.87474  Biso   1.000  Zr
  Zr8      1.0000 0.36517  0.52669  0.12495  Biso   1.000  Zr
  Zr9      1.0000 0.36635  0.53094  0.62395  Biso   1.000  Zr
  Zr10     1.0000 0.86273  0.53244  0.12809  Biso   1.000  Zr
  Zr11     1.0000 0.86664  0.53135  0.62432  Biso   1.000  Zr
  Zr12     1.0000 0.36382  0.96933  0.37331  Biso   1.000  Zr
  Zr13     1.0000 0.36714  0.96696  0.87448  Biso   1.000  Zr
  Zr14     1.0000 0.86416  0.96777  0.37647  Biso   1.000  Zr
  Zr15     1.0000 0.86511  0.96807  0.87459  Biso   1.000  Zr
  O1       1.0000 0.02915  0.37751  0.20189  Biso   1.000  O
  O2       1.0000 0.03717  0.37211  0.69029  Biso   1.000  O
  O3       1.0000 0.53514  0.36341  0.19425  Biso   1.000  O
  O4       1.0000 0.53483  0.36506  0.69509  Biso   1.000  O
  O5       1.0000 0.03340  0.13386  0.44592  Biso   1.000  O
  O6       1.0000 0.03118  0.14882  0.93173  Biso   1.000  O
  O7       1.0000 0.53333  0.13237  0.44586  Biso   1.000  O
  O8       1.0000 0.53649  0.13371  0.94394  Biso   1.000  O
  O9       1.0000 0.46509  0.86573  0.19444  Biso   1.000  O
  O10      1.0000 0.46704  0.86430  0.69533  Biso   1.000  O
  O11      1.0000 0.95314  0.86261  0.20205  Biso   1.000  O
  O12      1.0000 0.96530  0.86704  0.69550  Biso   1.000  O
  O13      1.0000 0.46546  0.63332  0.44620  Biso   1.000  O
  O14      1.0000 0.47178  0.63696  0.94601  Biso   1.000  O
  O15      1.0000 0.96581  0.63593  0.44797  Biso   1.000  O
  O16      1.0000 0.97133  0.64572  0.95128  Biso   1.000  O
  O17      1.0000 0.27418  0.24024  0.25146  Biso   1.000  O
  O18      1.0000 0.27052  0.23360  0.74661  Biso   1.000  O
  O19      1.0000 0.76640  0.23222  0.24940  Biso   1.000  O
  O20      1.0000 0.77021  0.23345  0.74732  Biso   1.000  O
  O21      1.0000 0.26843  0.26573  0.49918  Biso   1.000  O
  O22      1.0000 0.27429  0.26588  0.99337  Biso   1.000  O
  O23      1.0000 0.76754  0.26784  0.49868  Biso   1.000  O
  O24      1.0000 0.77008  0.26518  0.99813  Biso   1.000  O
  O25      1.0000 0.23097  0.76835  0.49822  Biso   1.000  O
  O26      1.0000 0.23850  0.75354  0.99273  Biso   1.000  O
  O27      1.0000 0.73016  0.76583  0.49919  Biso   1.000  O
  O28      1.0000 0.73197  0.76509  0.99861  Biso   1.000  O
  O29      1.0000 0.23543  0.72408  0.25122  Biso   1.000  O
  O30      1.0000 0.23208  0.73533  0.74547  Biso   1.000  O
  O31      1.0000 0.72381  0.73167  0.24969  Biso   1.000  O
  O32      1.0000 0.73165  0.73283  0.74834  Biso   1.000  O
