data_image0
_cell_length_a       10.1148
_cell_length_b       10.366
_cell_length_c       5.12328
_cell_angle_alpha    90.8491
_cell_angle_beta     89.5206
_cell_angle_gamma    90.5149

_symmetry_space_group_name_H-M    "P 1"
_symmetry_int_tables_number       1

loop_
  _symmetry_equiv_pos_as_xyz
  'x, y, z'

loop_
  _atom_site_label
  _atom_site_occupancy
  _atom_site_fract_x
  _atom_site_fract_y
  _atom_site_fract_z
  _atom_site_thermal_displace_type
  _atom_site_B_iso_or_equiv
  _atom_site_type_symbol
  Zr1      1.0000 0.14720  0.96756  0.30483  Biso   1.000  Zr
  Zr2      1.0000 0.11536  0.25676  0.61360  Biso   1.000  Zr
  Zr3      1.0000 0.38325  0.24048  0.23672  Biso   1.000  Zr
  Zr4      1.0000 0.39803  0.00724  0.75286  Biso   1.000  Zr
  O1       1.0000 0.99818  0.15945  0.89993  Biso   1.000  O
  O2       1.0000 0.99243  0.09586  0.43965  Biso   1.000  O
  O3       1.0000 0.96687  0.37306  0.47822  Biso   1.000  O
  O4       1.0000 0.99681  0.40621  0.97978  Biso   1.000  O
  O5       1.0000 0.25988  0.12130  0.53265  Biso   1.000  O
  O6       1.0000 0.27193  0.06748  0.05038  Biso   1.000  O
  O7       1.0000 0.26700  0.31254  0.89887  Biso   1.000  O
  O8       1.0000 0.24591  0.39839  0.44263  Biso   1.000  O
  Zr5      1.0000 0.10083  0.51184  0.26110  Biso   1.000  Zr
  Zr6      1.0000 0.13061  0.73725  0.78404  Biso   1.000  Zr
  Zr7      1.0000 0.38969  0.75055  0.31381  Biso   1.000  Zr
  Zr8      1.0000 0.36100  0.48591  0.74127  Biso   1.000  Zr
  O9       1.0000 0.98941  0.65405  0.03916  Biso   1.000  O
  O10      1.0000 0.00184  0.61025  0.54399  Biso   1.000  O
  O11      1.0000 0.01061  0.84974  0.52797  Biso   1.000  O
  O12      1.0000 0.00850  0.90386  0.02156  Biso   1.000  O
  O13      1.0000 0.25058  0.63761  0.50222  Biso   1.000  O
  O14      1.0000 0.22412  0.57188  0.96905  Biso   1.000  O
  O15      1.0000 0.23815  0.81515  0.09418  Biso   1.000  O
  O16      1.0000 0.26216  0.87836  0.58432  Biso   1.000  O
  Zr9      1.0000 0.64181  0.01617  0.23107  Biso   1.000  Zr
  Zr10     1.0000 0.63080  0.26313  0.73047  Biso   1.000  Zr
  Zr11     1.0000 0.88296  0.25026  0.19245  Biso   1.000  Zr
  Zr12     1.0000 0.89508  0.99552  0.75267  Biso   1.000  Zr
  O17      1.0000 0.51220  0.14684  0.98149  Biso   1.000  O
  O18      1.0000 0.50550  0.10843  0.48028  Biso   1.000  O
  O19      1.0000 0.48879  0.35276  0.49992  Biso   1.000  O
  O20      1.0000 0.49180  0.39353  0.00617  Biso   1.000  O
  O21      1.0000 0.74121  0.17981  0.44462  Biso   1.000  O
  O22      1.0000 0.75803  0.11181  0.95712  Biso   1.000  O
  O23      1.0000 0.74356  0.36439  0.02066  Biso   1.000  O
  O24      1.0000 0.71943  0.43025  0.55439  Biso   1.000  O
  Zr13     1.0000 0.60884  0.49753  0.25472  Biso   1.000  Zr
  Zr14     1.0000 0.61417  0.74536  0.80442  Biso   1.000  Zr
  Zr15     1.0000 0.86621  0.76689  0.27172  Biso   1.000  Zr
  Zr16     1.0000 0.86352  0.51572  0.77159  Biso   1.000  Zr
  O25      1.0000 0.48585  0.63973  0.03516  Biso   1.000  O
  O26      1.0000 0.50193  0.60699  0.53546  Biso   1.000  O
  O27      1.0000 0.51531  0.86038  0.54142  Biso   1.000  O
  O28      1.0000 0.50027  0.89348  0.03925  Biso   1.000  O
  O29      1.0000 0.76014  0.67809  0.55890  Biso   1.000  O
  O30      1.0000 0.73878  0.61545  0.04956  Biso   1.000  O
  O31      1.0000 0.75465  0.86367  0.98719  Biso   1.000  O
  O32      1.0000 0.77174  0.92758  0.46383  Biso   1.000  O
  Zn1      1.0000 0.14141  0.21707  0.11151  Biso   1.000  Zn
