data_image0
_cell_length_a       10.3106
_cell_length_b       10.3691
_cell_length_c       5.30476
_cell_angle_alpha    90.3108
_cell_angle_beta     78.8928
_cell_angle_gamma    90.0206

_symmetry_space_group_name_H-M    "P 1"
_symmetry_int_tables_number       1

loop_
  _symmetry_equiv_pos_as_xyz
  'x, y, z'

loop_
  _atom_site_label
  _atom_site_occupancy
  _atom_site_fract_x
  _atom_site_fract_y
  _atom_site_fract_z
  _atom_site_thermal_displace_type
  _atom_site_B_iso_or_equiv
  _atom_site_type_symbol
  Zr1      1.0000 0.13250  0.02131  0.28197  Biso   1.000  Zr
  Zr2      1.0000 0.14066  0.23161  0.77709  Biso   1.000  Zr
  Zr3      1.0000 0.35609  0.27475  0.21866  Biso   1.000  Zr
  Zr4      1.0000 0.35759  0.47661  0.69640  Biso   1.000  Zr
  O1       1.0000 0.03575  0.16675  0.14569  Biso   1.000  O
  O2       1.0000 0.02929  0.08602  0.64930  Biso   1.000  O
  O3       1.0000 0.46389  0.42822  0.33623  Biso   1.000  O
  O4       1.0000 0.48480  0.34750  0.87633  Biso   1.000  O
  O5       1.0000 0.26515  0.11435  0.46246  Biso   1.000  O
  O6       1.0000 0.28011  0.12179  0.96359  Biso   1.000  O
  O7       1.0000 0.22369  0.37949  0.00834  Biso   1.000  O
  O8       1.0000 0.20498  0.37820  0.50043  Biso   1.000  O
  Zr5      1.0000 0.13810  0.52322  0.28243  Biso   1.000  Zr
  Zr6      1.0000 0.13503  0.72530  0.79135  Biso   1.000  Zr
  Zr7      1.0000 0.35984  0.76950  0.20870  Biso   1.000  Zr
  Zr8      1.0000 0.35501  0.96600  0.70789  Biso   1.000  Zr
  O9       1.0000 0.02749  0.66428  0.14953  Biso   1.000  O
  O10      1.0000 0.02962  0.58854  0.64780  Biso   1.000  O
  O11      1.0000 0.46710  0.91332  0.35178  Biso   1.000  O
  O12      1.0000 0.46539  0.83462  0.84930  Biso   1.000  O
  O13      1.0000 0.27357  0.62646  0.47860  Biso   1.000  O
  O14      1.0000 0.27255  0.62320  0.97824  Biso   1.000  O
  O15      1.0000 0.22223  0.87640  0.01871  Biso   1.000  O
  O16      1.0000 0.22264  0.86611  0.51819  Biso   1.000  O
  Zr9      1.0000 0.63980  0.02052  0.30055  Biso   1.000  Zr
  Zr10     1.0000 0.65308  0.23160  0.81923  Biso   1.000  Zr
  Zr11     1.0000 0.86486  0.27298  0.21879  Biso   1.000  Zr
  Zr12     1.0000 0.86260  0.47946  0.71227  Biso   1.000  Zr
  O17      1.0000 0.53411  0.16647  0.17335  Biso   1.000  O
  O18      1.0000 0.53165  0.08636  0.67093  Biso   1.000  O
  O19      1.0000 0.96381  0.41878  0.34405  Biso   1.000  O
  O20      1.0000 0.96532  0.33574  0.84617  Biso   1.000  O
  O21      1.0000 0.77466  0.12898  0.49380  Biso   1.000  O
  O22      1.0000 0.77855  0.11971  0.99617  Biso   1.000  O
  O23      1.0000 0.72903  0.37765  0.03634  Biso   1.000  O
  O24      1.0000 0.72525  0.37193  0.53400  Biso   1.000  O
  Zr13     1.0000 0.63681  0.52448  0.29891  Biso   1.000  Zr
  Zr14     1.0000 0.63737  0.72722  0.79502  Biso   1.000  Zr
  Zr15     1.0000 0.85814  0.77140  0.21054  Biso   1.000  Zr
  Zr16     1.0000 0.86193  0.97689  0.71245  Biso   1.000  Zr
  O25      1.0000 0.53312  0.66883  0.15856  Biso   1.000  O
  O26      1.0000 0.53086  0.58670  0.65830  Biso   1.000  O
  O27      1.0000 0.96352  0.91253  0.35016  Biso   1.000  O
  O28      1.0000 0.96600  0.83633  0.84980  Biso   1.000  O
  O29      1.0000 0.77364  0.63025  0.48428  Biso   1.000  O
  O30      1.0000 0.77250  0.62170  0.98284  Biso   1.000  O
  O31      1.0000 0.72319  0.87892  0.02517  Biso   1.000  O
  O32      1.0000 0.72181  0.87335  0.52666  Biso   1.000  O
  Zn1      1.0000 0.41665  0.22776  0.65263  Biso   1.000  Zn
