data_image0
_cell_length_a       10.0415
_cell_length_b       10.4008
_cell_length_c       5.03309
_cell_angle_alpha    90.2871
_cell_angle_beta     89.413
_cell_angle_gamma    90.0502

_symmetry_space_group_name_H-M    "P 1"
_symmetry_int_tables_number       1

loop_
  _symmetry_equiv_pos_as_xyz
  'x, y, z'

loop_
  _atom_site_label
  _atom_site_occupancy
  _atom_site_fract_x
  _atom_site_fract_y
  _atom_site_fract_z
  _atom_site_thermal_displace_type
  _atom_site_B_iso_or_equiv
  _atom_site_type_symbol
  Zn1      1.0000 0.11755  0.02165  0.21302  Biso   1.000  Zn
  Zr1      1.0000 0.13551  0.51560  0.25343  Biso   1.000  Zr
  Zr2      1.0000 0.63205  0.01487  0.24407  Biso   1.000  Zr
  Zr3      1.0000 0.63394  0.51637  0.25288  Biso   1.000  Zr
  Zr4      1.0000 0.13502  0.23125  0.74799  Biso   1.000  Zr
  Zr5      1.0000 0.13523  0.73562  0.75933  Biso   1.000  Zr
  Zr6      1.0000 0.63290  0.23357  0.74758  Biso   1.000  Zr
  Zr7      1.0000 0.63336  0.73595  0.75119  Biso   1.000  Zr
  Zr8      1.0000 0.36439  0.26491  0.25647  Biso   1.000  Zr
  Zr9      1.0000 0.36377  0.76780  0.26158  Biso   1.000  Zr
  Zr10     1.0000 0.86490  0.26392  0.24466  Biso   1.000  Zr
  Zr11     1.0000 0.86957  0.76667  0.24376  Biso   1.000  Zr
  Zr12     1.0000 0.36534  0.48445  0.75380  Biso   1.000  Zr
  Zr13     1.0000 0.35882  0.98382  0.75980  Biso   1.000  Zr
  Zr14     1.0000 0.86548  0.48483  0.75025  Biso   1.000  Zr
  Zr15     1.0000 0.86698  0.98491  0.73831  Biso   1.000  Zr
  O1       1.0000 0.03652  0.18231  0.38207  Biso   1.000  O
  O2       1.0000 0.03514  0.68306  0.39304  Biso   1.000  O
  O3       1.0000 0.53839  0.18598  0.38186  Biso   1.000  O
  O4       1.0000 0.53424  0.68289  0.39620  Biso   1.000  O
  O5       1.0000 0.03265  0.06823  0.86187  Biso   1.000  O
  O6       1.0000 0.03384  0.56553  0.89531  Biso   1.000  O
  O7       1.0000 0.53337  0.06704  0.88782  Biso   1.000  O
  O8       1.0000 0.53505  0.56680  0.89188  Biso   1.000  O
  O9       1.0000 0.46467  0.43335  0.39191  Biso   1.000  O
  O10      1.0000 0.46813  0.93312  0.40034  Biso   1.000  O
  O11      1.0000 0.96578  0.43033  0.38935  Biso   1.000  O
  O12      1.0000 0.96744  0.93475  0.37632  Biso   1.000  O
  O13      1.0000 0.46345  0.31572  0.88812  Biso   1.000  O
  O14      1.0000 0.46498  0.81845  0.90224  Biso   1.000  O
  O15      1.0000 0.96403  0.31710  0.88478  Biso   1.000  O
  O16      1.0000 0.96192  0.81541  0.87907  Biso   1.000  O
  O17      1.0000 0.28169  0.12653  0.51748  Biso   1.000  O
  O18      1.0000 0.26854  0.61497  0.50232  Biso   1.000  O
  O19      1.0000 0.76847  0.11621  0.48917  Biso   1.000  O
  O20      1.0000 0.77019  0.61643  0.49583  Biso   1.000  O
  O21      1.0000 0.26537  0.12972  0.01208  Biso   1.000  O
  O22      1.0000 0.27023  0.63296  0.00294  Biso   1.000  O
  O23      1.0000 0.76935  0.13354  0.98894  Biso   1.000  O
  O24      1.0000 0.76809  0.63379  0.99643  Biso   1.000  O
  O25      1.0000 0.23044  0.38150  0.99902  Biso   1.000  O
  O26      1.0000 0.22472  0.88332  0.02346  Biso   1.000  O
  O27      1.0000 0.72979  0.38320  0.99661  Biso   1.000  O
  O28      1.0000 0.73027  0.88363  0.99006  Biso   1.000  O
  O29      1.0000 0.22814  0.36952  0.49868  Biso   1.000  O
  O30      1.0000 0.23980  0.86043  0.52660  Biso   1.000  O
  O31      1.0000 0.73067  0.36701  0.49608  Biso   1.000  O
  O32      1.0000 0.73256  0.86552  0.48887  Biso   1.000  O
