data_image0
_cell_length_a       5.17393
_cell_length_b       10.3843
_cell_length_c       10.6517
_cell_angle_alpha    90.1254
_cell_angle_beta     78.4917
_cell_angle_gamma    89.8078

_symmetry_space_group_name_H-M    "P 1"
_symmetry_int_tables_number       1

loop_
  _symmetry_equiv_pos_as_xyz
  'x, y, z'

loop_
  _atom_site_label
  _atom_site_occupancy
  _atom_site_fract_x
  _atom_site_fract_y
  _atom_site_fract_z
  _atom_site_thermal_displace_type
  _atom_site_B_iso_or_equiv
  _atom_site_type_symbol
  Zr1      1.0000 0.26792  0.02193  0.15302  Biso   1.000  Zr
  Zr2      1.0000 0.29832  0.22916  0.40287  Biso   1.000  Zr
  Zr3      1.0000 0.67969  0.27023  0.08153  Biso   1.000  Zr
  Zr4      1.0000 0.72319  0.49081  0.35826  Biso   1.000  Zr
  O1       1.0000 0.02924  0.16658  0.08303  Biso   1.000  O
  O2       1.0000 0.08356  0.06516  0.34282  Biso   1.000  O
  O3       1.0000 0.95588  0.40933  0.17949  Biso   1.000  O
  O4       1.0000 0.96017  0.35187  0.43198  Biso   1.000  O
  O5       1.0000 0.56592  0.11474  0.23633  Biso   1.000  O
  O6       1.0000 0.60938  0.13196  0.47551  Biso   1.000  O
  O7       1.0000 0.41592  0.38628  0.00119  Biso   1.000  O
  O8       1.0000 0.50120  0.36533  0.25946  Biso   1.000  O
  Zr5      1.0000 0.26713  0.02156  0.65018  Biso   1.000  Zr
  Zr6      1.0000 0.25583  0.23061  0.89339  Biso   1.000  Zr
  Zr7      1.0000 0.72662  0.27505  0.60955  Biso   1.000  Zr
  Zr8      1.0000 0.70973  0.48437  0.85250  Biso   1.000  Zr
  O9       1.0000 0.08268  0.16983  0.58363  Biso   1.000  O
  O10      1.0000 0.04935  0.08526  0.83048  Biso   1.000  O
  O11      1.0000 0.93091  0.41823  0.67560  Biso   1.000  O
  O12      1.0000 0.91653  0.33799  0.91639  Biso   1.000  O
  O13      1.0000 0.53862  0.12876  0.73813  Biso   1.000  O
  O14      1.0000 0.51611  0.12214  0.98574  Biso   1.000  O
  O15      1.0000 0.46439  0.38246  0.51485  Biso   1.000  O
  O16      1.0000 0.44483  0.37175  0.75965  Biso   1.000  O
  Zr9      1.0000 0.27684  0.52372  0.14744  Biso   1.000  Zr
  Zr10     1.0000 0.27197  0.72838  0.39986  Biso   1.000  Zr
  Zr11     1.0000 0.71549  0.77140  0.10551  Biso   1.000  Zr
  Zr12     1.0000 0.71683  0.96541  0.35490  Biso   1.000  Zr
  O17      1.0000 0.06033  0.66224  0.07764  Biso   1.000  O
  O18      1.0000 0.07010  0.59006  0.32658  Biso   1.000  O
  O19      1.0000 0.93250  0.90893  0.17690  Biso   1.000  O
  O20      1.0000 0.92530  0.82744  0.42941  Biso   1.000  O
  O21      1.0000 0.55417  0.62593  0.24253  Biso   1.000  O
  O22      1.0000 0.53868  0.62781  0.49646  Biso   1.000  O
  O23      1.0000 0.44596  0.87880  0.01244  Biso   1.000  O
  O24      1.0000 0.43907  0.86404  0.26027  Biso   1.000  O
  Zr13     1.0000 0.27181  0.52356  0.64847  Biso   1.000  Zr
  Zr14     1.0000 0.26763  0.72874  0.89999  Biso   1.000  Zr
  Zr15     1.0000 0.71724  0.77255  0.60842  Biso   1.000  Zr
  Zr16     1.0000 0.70984  0.97628  0.85722  Biso   1.000  Zr
  O25      1.0000 0.05501  0.66371  0.58137  Biso   1.000  O
  O26      1.0000 0.05738  0.58771  0.82896  Biso   1.000  O
  O27      1.0000 0.92924  0.91472  0.67785  Biso   1.000  O
  O28      1.0000 0.93001  0.83760  0.92629  Biso   1.000  O
  O29      1.0000 0.54081  0.62897  0.74314  Biso   1.000  O
  O30      1.0000 0.54839  0.62566  0.99191  Biso   1.000  O
  O31      1.0000 0.44209  0.88219  0.51476  Biso   1.000  O
  O32      1.0000 0.44314  0.87256  0.76374  Biso   1.000  O
  Zr17     1.0000 0.86972  0.23027  0.28739  Biso   1.000  Zr
