data_image0
_cell_length_a       9.94967
_cell_length_b       10.3745
_cell_length_c       5.01156
_cell_angle_alpha    90.0928
_cell_angle_beta     89.2533
_cell_angle_gamma    89.8855

_symmetry_space_group_name_H-M    "P 1"
_symmetry_int_tables_number       1

loop_
  _symmetry_equiv_pos_as_xyz
  'x, y, z'

loop_
  _atom_site_label
  _atom_site_occupancy
  _atom_site_fract_x
  _atom_site_fract_y
  _atom_site_fract_z
  _atom_site_thermal_displace_type
  _atom_site_B_iso_or_equiv
  _atom_site_type_symbol
  Ag1      1.0000 0.12154  0.02411  0.21846  Biso   1.000  Ag
  Hf1      1.0000 0.13833  0.23531  0.75019  Biso   1.000  Hf
  Hf2      1.0000 0.36751  0.26804  0.26116  Biso   1.000  Hf
  Hf3      1.0000 0.36614  0.48473  0.75604  Biso   1.000  Hf
  Hf4      1.0000 0.04016  0.18535  0.37803  Biso   1.000  Hf
  Hf5      1.0000 0.03628  0.06776  0.83037  Biso   1.000  Hf
  Hf6      1.0000 0.46445  0.43434  0.39354  Biso   1.000  Hf
  Hf7      1.0000 0.46196  0.31422  0.88774  Biso   1.000  Hf
  Hf8      1.0000 0.28792  0.13228  0.52787  Biso   1.000  Hf
  Hf9      1.0000 0.26510  0.12827  0.01915  Biso   1.000  Hf
  Hf10     1.0000 0.23057  0.38147  0.00313  Biso   1.000  Hf
  Hf11     1.0000 0.22758  0.37210  0.50142  Biso   1.000  Hf
  Hf12     1.0000 0.13457  0.51664  0.25442  Biso   1.000  Hf
  Hf13     1.0000 0.13331  0.73274  0.75626  Biso   1.000  Hf
  Hf14     1.0000 0.36529  0.76678  0.26283  Biso   1.000  Hf
  Hf15     1.0000 0.36193  0.98277  0.75634  Biso   1.000  Hf
  Hf16     1.0000 0.03616  0.68368  0.39138  Biso   1.000  Hf
  Hf17     1.0000 0.03474  0.56423  0.89308  Biso   1.000  Hf
  Hf18     1.0000 0.46681  0.93393  0.39699  Biso   1.000  Hf
  Hf19     1.0000 0.46230  0.81658  0.89874  Biso   1.000  Hf
  Hf20     1.0000 0.27002  0.61510  0.50257  Biso   1.000  Hf
  Hf21     1.0000 0.27022  0.63335  0.00385  Biso   1.000  Hf
  Hf22     1.0000 0.22391  0.88158  0.02307  Biso   1.000  Hf
  Hf23     1.0000 0.23937  0.86028  0.52808  Biso   1.000  Hf
  Hf24     1.0000 0.63299  0.01606  0.24733  Biso   1.000  Hf
  Hf25     1.0000 0.63301  0.23210  0.74992  Biso   1.000  Hf
  Hf26     1.0000 0.86280  0.26595  0.24613  Biso   1.000  Hf
  Hf27     1.0000 0.86606  0.48245  0.75108  Biso   1.000  Hf
  Hf28     1.0000 0.54194  0.18731  0.38033  Biso   1.000  Hf
  Hf29     1.0000 0.53519  0.06567  0.88813  Biso   1.000  Hf
  Hf30     1.0000 0.96466  0.42945  0.38894  Biso   1.000  Hf
  Hf31     1.0000 0.96366  0.31546  0.88594  Biso   1.000  Hf
  Hf32     1.0000 0.77036  0.11738  0.49356  Biso   1.000  Hf
  Hf33     1.0000 0.77220  0.13087  0.99269  Biso   1.000  Hf
  Hf34     1.0000 0.72873  0.38088  0.00080  Biso   1.000  Hf
  Hf35     1.0000 0.72919  0.36805  0.50060  Biso   1.000  Hf
  Hf36     1.0000 0.63460  0.51703  0.25530  Biso   1.000  Hf
  Hf37     1.0000 0.63279  0.73369  0.75350  Biso   1.000  Hf
  Hf38     1.0000 0.86837  0.76459  0.24336  Biso   1.000  Hf
  Hf39     1.0000 0.86338  0.98244  0.74248  Biso   1.000  Hf
  Hf40     1.0000 0.53605  0.68369  0.39638  Biso   1.000  Hf
  Hf41     1.0000 0.53616  0.56570  0.89391  Biso   1.000  Hf
  Hf42     1.0000 0.96023  0.93566  0.37021  Biso   1.000  Hf
  Hf43     1.0000 0.96167  0.81602  0.88095  Biso   1.000  Hf
  Hf44     1.0000 0.77125  0.61649  0.49875  Biso   1.000  Hf
  Hf45     1.0000 0.76952  0.63154  0.99819  Biso   1.000  Hf
  Hf46     1.0000 0.72681  0.88061  0.99477  Biso   1.000  Hf
  Hf47     1.0000 0.73350  0.86631  0.49358  Biso   1.000  Hf
