data_image0
_cell_length_a       10.0527
_cell_length_b       5.06385
_cell_length_c       10.1714
_cell_angle_alpha    90.3994
_cell_angle_beta     90.1622
_cell_angle_gamma    86.5403

_symmetry_space_group_name_H-M    "P 1"
_symmetry_int_tables_number       1

loop_
  _symmetry_equiv_pos_as_xyz
  'x, y, z'

loop_
  _atom_site_label
  _atom_site_occupancy
  _atom_site_fract_x
  _atom_site_fract_y
  _atom_site_fract_z
  _atom_site_thermal_displace_type
  _atom_site_B_iso_or_equiv
  _atom_site_type_symbol
  Ag1      1.0000 0.11419  0.01547  0.14784  Biso   1.000  Ag
  Hf1      1.0000 0.13559  0.51816  0.38277  Biso   1.000  Hf
  Hf2      1.0000 0.35299  0.54191  0.11193  Biso   1.000  Hf
  Hf3      1.0000 0.38666  0.99357  0.37401  Biso   1.000  Hf
  Hf4      1.0000 0.97874  0.17982  0.02770  Biso   1.000  Hf
  Hf5      1.0000 0.00849  0.24455  0.27954  Biso   1.000  Hf
  Hf6      1.0000 0.99379  0.71583  0.23473  Biso   1.000  Hf
  Hf7      1.0000 0.96190  0.67604  0.96484  Biso   1.000  Hf
  Hf8      1.0000 0.26904  0.31024  0.24749  Biso   1.000  Hf
  Hf9      1.0000 0.23989  0.31653  0.97979  Biso   1.000  Hf
  Hf10     1.0000 0.21970  0.80692  0.01070  Biso   1.000  Hf
  Hf11     1.0000 0.24474  0.80433  0.26233  Biso   1.000  Hf
  Hf12     1.0000 0.13200  0.02235  0.61645  Biso   1.000  Hf
  Hf13     1.0000 0.12230  0.54234  0.85633  Biso   1.000  Hf
  Hf14     1.0000 0.38332  0.48210  0.62454  Biso   1.000  Hf
  Hf15     1.0000 0.35621  0.04062  0.88439  Biso   1.000  Hf
  Hf16     1.0000 0.03207  0.35695  0.53416  Biso   1.000  Hf
  Hf17     1.0000 0.99946  0.26104  0.77271  Biso   1.000  Hf
  Hf18     1.0000 0.00138  0.77252  0.71696  Biso   1.000  Hf
  Hf19     1.0000 0.03345  0.85622  0.46299  Biso   1.000  Hf
  Hf20     1.0000 0.24842  0.28529  0.73198  Biso   1.000  Hf
  Hf21     1.0000 0.26542  0.22997  0.48811  Biso   1.000  Hf
  Hf22     1.0000 0.26723  0.73180  0.51213  Biso   1.000  Hf
  Hf23     1.0000 0.25177  0.78724  0.76389  Biso   1.000  Hf
  Hf24     1.0000 0.61904  0.97787  0.12098  Biso   1.000  Hf
  Hf25     1.0000 0.62362  0.47297  0.36358  Biso   1.000  Hf
  Hf26     1.0000 0.87687  0.48365  0.12646  Biso   1.000  Hf
  Hf27     1.0000 0.86654  0.98819  0.36769  Biso   1.000  Hf
  Hf28     1.0000 0.48429  0.25574  0.02770  Biso   1.000  Hf
  Hf29     1.0000 0.52308  0.18715  0.27741  Biso   1.000  Hf
  Hf30     1.0000 0.49395  0.70644  0.22921  Biso   1.000  Hf
  Hf31     1.0000 0.47615  0.75485  0.97428  Biso   1.000  Hf
  Hf32     1.0000 0.75643  0.21944  0.21795  Biso   1.000  Hf
  Hf33     1.0000 0.72309  0.15093  0.96650  Biso   1.000  Hf
  Hf34     1.0000 0.71272  0.64452  0.03653  Biso   1.000  Hf
  Hf35     1.0000 0.74590  0.73539  0.27452  Biso   1.000  Hf
  Hf36     1.0000 0.62109  0.96546  0.63840  Biso   1.000  Hf
  Hf37     1.0000 0.61705  0.47748  0.88001  Biso   1.000  Hf
  Hf38     1.0000 0.86770  0.49644  0.63322  Biso   1.000  Hf
  Hf39     1.0000 0.88016  0.99800  0.86389  Biso   1.000  Hf
  Hf40     1.0000 0.52021  0.25161  0.52089  Biso   1.000  Hf
  Hf41     1.0000 0.49718  0.20661  0.77327  Biso   1.000  Hf
  Hf42     1.0000 0.51171  0.69483  0.72706  Biso   1.000  Hf
  Hf43     1.0000 0.52172  0.75295  0.48098  Biso   1.000  Hf
  Hf44     1.0000 0.74788  0.23880  0.72409  Biso   1.000  Hf
  Hf45     1.0000 0.78289  0.31351  0.46683  Biso   1.000  Hf
  Hf46     1.0000 0.78032  0.81301  0.53200  Biso   1.000  Hf
  Hf47     1.0000 0.74969  0.72901  0.78091  Biso   1.000  Hf
