data_image0
_cell_length_a       10.0594
_cell_length_b       5.24882
_cell_length_c       10.1009
_cell_angle_alpha    88.9953
_cell_angle_beta     89.028
_cell_angle_gamma    89.9158

_symmetry_space_group_name_H-M    "P 1"
_symmetry_int_tables_number       1

loop_
  _symmetry_equiv_pos_as_xyz
  'x, y, z'

loop_
  _atom_site_label
  _atom_site_occupancy
  _atom_site_fract_x
  _atom_site_fract_y
  _atom_site_fract_z
  _atom_site_thermal_displace_type
  _atom_site_B_iso_or_equiv
  _atom_site_type_symbol
  Hf1      1.0000 0.13071  0.10135  0.11569  Biso   1.000  Hf
  Hf2      1.0000 0.13729  0.45661  0.39014  Biso   1.000  Hf
  Hf3      1.0000 0.37415  0.53831  0.12396  Biso   1.000  Hf
  Hf4      1.0000 0.36569  0.96045  0.37752  Biso   1.000  Hf
  Hf5      1.0000 0.00203  0.33480  0.23921  Biso   1.000  Hf
  Hf6      1.0000 0.04197  0.11416  0.45337  Biso   1.000  Hf
  Hf7      1.0000 0.47216  0.85787  0.20716  Biso   1.000  Hf
  Hf8      1.0000 0.46942  0.63513  0.45507  Biso   1.000  Hf
  Hf9      1.0000 0.26797  0.22885  0.24692  Biso   1.000  Hf
  Hf10     1.0000 0.27573  0.25713  0.50103  Biso   1.000  Hf
  Hf11     1.0000 0.23361  0.75410  0.51039  Biso   1.000  Hf
  Hf12     1.0000 0.24368  0.70638  0.26863  Biso   1.000  Hf
  Hf13     1.0000 0.13474  0.01231  0.62674  Biso   1.000  Hf
  Hf14     1.0000 0.12285  0.44131  0.84946  Biso   1.000  Hf
  Hf15     1.0000 0.37025  0.52844  0.63033  Biso   1.000  Hf
  Hf16     1.0000 0.37564  0.98208  0.87371  Biso   1.000  Hf
  Hf17     1.0000 0.03276  0.35471  0.67827  Biso   1.000  Hf
  Hf18     1.0000 0.03566  0.11162  0.93330  Biso   1.000  Hf
  Hf19     1.0000 0.46807  0.85910  0.69436  Biso   1.000  Hf
  Hf20     1.0000 0.47405  0.64316  0.94538  Biso   1.000  Hf
  Hf21     1.0000 0.26550  0.21852  0.74285  Biso   1.000  Hf
  Hf22     1.0000 0.27766  0.30352  0.98044  Biso   1.000  Hf
  Hf23     1.0000 0.26553  0.84374  0.02797  Biso   1.000  Hf
  Hf24     1.0000 0.23528  0.72474  0.76254  Biso   1.000  Hf
  Hf25     1.0000 0.63208  0.02592  0.12822  Biso   1.000  Hf
  Hf26     1.0000 0.63082  0.46600  0.37572  Biso   1.000  Hf
  Hf27     1.0000 0.84826  0.51910  0.12592  Biso   1.000  Hf
  Hf28     1.0000 0.87860  0.97863  0.36672  Biso   1.000  Hf
  Hf29     1.0000 0.53540  0.36439  0.19816  Biso   1.000  Hf
  Hf30     1.0000 0.53433  0.13333  0.44746  Biso   1.000  Hf
  Hf31     1.0000 0.96201  0.87239  0.18285  Biso   1.000  Hf
  Hf32     1.0000 0.97019  0.64173  0.44784  Biso   1.000  Hf
  Hf33     1.0000 0.75895  0.22309  0.24874  Biso   1.000  Hf
  Hf34     1.0000 0.77007  0.27663  0.49501  Biso   1.000  Hf
  Hf35     1.0000 0.73709  0.77856  0.49630  Biso   1.000  Hf
  Hf36     1.0000 0.73206  0.72766  0.25104  Biso   1.000  Hf
  Hf37     1.0000 0.63532  0.03035  0.62083  Biso   1.000  Hf
  Hf38     1.0000 0.63539  0.46263  0.87476  Biso   1.000  Hf
  Hf39     1.0000 0.86210  0.53786  0.61924  Biso   1.000  Hf
  Hf40     1.0000 0.86129  0.95627  0.87138  Biso   1.000  Hf
  Hf41     1.0000 0.53233  0.35268  0.70343  Biso   1.000  Hf
  Hf42     1.0000 0.53702  0.13805  0.95259  Biso   1.000  Hf
  Hf43     1.0000 0.96638  0.85260  0.69767  Biso   1.000  Hf
  Hf44     1.0000 0.94789  0.61124  0.92653  Biso   1.000  Hf
  Hf45     1.0000 0.76963  0.22900  0.74557  Biso   1.000  Hf
  Hf46     1.0000 0.76945  0.25673  0.99908  Biso   1.000  Hf
  Hf47     1.0000 0.72610  0.75926  0.00128  Biso   1.000  Hf
  Hf48     1.0000 0.72709  0.73283  0.74662  Biso   1.000  Hf
  Ag1      1.0000 0.10304  0.60699  0.08934  Biso   1.000  Ag
