data_image0
_cell_length_a       10.141
_cell_length_b       10.4139
_cell_length_c       5.08287
_cell_angle_alpha    87.5194
_cell_angle_beta     87.9723
_cell_angle_gamma    91.6982

_symmetry_space_group_name_H-M    "P 1"
_symmetry_int_tables_number       1

loop_
  _symmetry_equiv_pos_as_xyz
  'x, y, z'

loop_
  _atom_site_label
  _atom_site_occupancy
  _atom_site_fract_x
  _atom_site_fract_y
  _atom_site_fract_z
  _atom_site_thermal_displace_type
  _atom_site_B_iso_or_equiv
  _atom_site_type_symbol
  Hf1      1.0000 0.12247  0.94535  0.21660  Biso   1.000  Hf
  Hf2      1.0000 0.13070  0.28936  0.75641  Biso   1.000  Hf
  Hf3      1.0000 0.39723  0.27123  0.30580  Biso   1.000  Hf
  Hf4      1.0000 0.36322  0.99582  0.75769  Biso   1.000  Hf
  Hf5      1.0000 0.97922  0.15523  0.84106  Biso   1.000  Hf
  Hf6      1.0000 0.96594  0.05552  0.35312  Biso   1.000  Hf
  Hf7      1.0000 0.00848  0.34103  0.45212  Biso   1.000  Hf
  Hf8      1.0000 0.00203  0.39921  0.97952  Biso   1.000  Hf
  Hf9      1.0000 0.26996  0.16289  0.61595  Biso   1.000  Hf
  Hf10     1.0000 0.29292  0.05679  0.10115  Biso   1.000  Hf
  Hf11     1.0000 0.27402  0.35119  0.00964  Biso   1.000  Hf
  Hf12     1.0000 0.25793  0.41364  0.50435  Biso   1.000  Hf
  Hf13     1.0000 0.11768  0.50542  0.26286  Biso   1.000  Hf
  Hf14     1.0000 0.11894  0.73202  0.73059  Biso   1.000  Hf
  Hf15     1.0000 0.38457  0.76287  0.25650  Biso   1.000  Hf
  Hf16     1.0000 0.38315  0.50392  0.79042  Biso   1.000  Hf
  Hf17     1.0000 0.98256  0.64275  0.03562  Biso   1.000  Hf
  Hf18     1.0000 0.00747  0.57921  0.55531  Biso   1.000  Hf
  Hf19     1.0000 0.99805  0.81956  0.44786  Biso   1.000  Hf
  Hf20     1.0000 0.00670  0.88995  0.92168  Biso   1.000  Hf
  Hf21     1.0000 0.23489  0.65662  0.42329  Biso   1.000  Hf
  Hf22     1.0000 0.21769  0.58237  0.92556  Biso   1.000  Hf
  Hf23     1.0000 0.24848  0.82857  0.99446  Biso   1.000  Hf
  Hf24     1.0000 0.23900  0.89148  0.52279  Biso   1.000  Hf
  Hf25     1.0000 0.61088  0.02388  0.26596  Biso   1.000  Hf
  Hf26     1.0000 0.64767  0.24734  0.75708  Biso   1.000  Hf
  Hf27     1.0000 0.89134  0.22996  0.18411  Biso   1.000  Hf
  Hf28     1.0000 0.87110  0.99981  0.70712  Biso   1.000  Hf
  Hf29     1.0000 0.52522  0.18283  0.06888  Biso   1.000  Hf
  Hf30     1.0000 0.50828  0.11542  0.55707  Biso   1.000  Hf
  Hf31     1.0000 0.50649  0.36483  0.57772  Biso   1.000  Hf
  Hf32     1.0000 0.49375  0.43039  0.08821  Biso   1.000  Hf
  Hf33     1.0000 0.75215  0.15267  0.47606  Biso   1.000  Hf
  Hf34     1.0000 0.74949  0.09954  0.97580  Biso   1.000  Hf
  Hf35     1.0000 0.75066  0.35720  0.04233  Biso   1.000  Hf
  Hf36     1.0000 0.75223  0.40313  0.55609  Biso   1.000  Hf
  Hf37     1.0000 0.63456  0.50037  0.31426  Biso   1.000  Hf
  Hf38     1.0000 0.61697  0.76312  0.73340  Biso   1.000  Hf
  Hf39     1.0000 0.85192  0.75835  0.21946  Biso   1.000  Hf
  Hf40     1.0000 0.86069  0.51062  0.80109  Biso   1.000  Hf
  Hf41     1.0000 0.46908  0.66991  0.95768  Biso   1.000  Hf
  Hf42     1.0000 0.50007  0.61986  0.48446  Biso   1.000  Hf
  Hf43     1.0000 0.49125  0.87183  0.50639  Biso   1.000  Hf
  Hf44     1.0000 0.51042  0.91229  0.00077  Biso   1.000  Hf
  Hf45     1.0000 0.75233  0.65010  0.52044  Biso   1.000  Hf
  Hf46     1.0000 0.72732  0.61360  0.02236  Biso   1.000  Hf
  Hf47     1.0000 0.75993  0.85300  0.93034  Biso   1.000  Hf
  Hf48     1.0000 0.74071  0.89876  0.44506  Biso   1.000  Hf
  Ag1      1.0000 0.14712  0.19014  0.26966  Biso   1.000  Ag
