data_image0
_cell_length_a       10.0531
_cell_length_b       10.2534
_cell_length_c       10.5063
_cell_angle_alpha    89.8887
_cell_angle_beta     90.555
_cell_angle_gamma    90.0173

_symmetry_space_group_name_H-M    "P 1"
_symmetry_int_tables_number       1

loop_
  _symmetry_equiv_pos_as_xyz
  'x, y, z'

loop_
  _atom_site_label
  _atom_site_occupancy
  _atom_site_fract_x
  _atom_site_fract_y
  _atom_site_fract_z
  _atom_site_thermal_displace_type
  _atom_site_B_iso_or_equiv
  _atom_site_type_symbol
  Hf1      1.0000 0.13712  0.02054  0.17226  Biso   1.000  Hf
  Hf2      1.0000 0.13630  0.22745  0.42623  Biso   1.000  Hf
  Hf3      1.0000 0.34781  0.26872  0.18472  Biso   1.000  Hf
  Hf4      1.0000 0.36240  0.47923  0.42322  Biso   1.000  Hf
  Hf5      1.0000 0.64060  0.01942  0.07417  Biso   1.000  Hf
  Hf6      1.0000 0.63784  0.22532  0.33164  Biso   1.000  Hf
  Hf7      1.0000 0.86081  0.27016  0.07566  Biso   1.000  Hf
  Hf8      1.0000 0.86138  0.47849  0.32851  Biso   1.000  Hf
  O1       1.0000 0.03366  0.16498  0.08331  Biso   1.000  O
  O2       1.0000 0.03076  0.08566  0.33337  Biso   1.000  O
  O3       1.0000 0.45301  0.43734  0.10148  Biso   1.000  O
  O4       1.0000 0.46587  0.33355  0.33565  Biso   1.000  O
  O5       1.0000 0.26970  0.12449  0.30111  Biso   1.000  O
  O6       1.0000 0.27738  0.12488  0.04792  Biso   1.000  O
  O7       1.0000 0.21916  0.37454  0.30024  Biso   1.000  O
  O8       1.0000 0.22246  0.37517  0.04784  Biso   1.000  O
  O9       1.0000 0.51471  0.13945  0.19131  Biso   1.000  O
  O10      1.0000 0.53108  0.08714  0.42585  Biso   1.000  O
  O11      1.0000 0.96562  0.41449  0.16760  Biso   1.000  O
  O12      1.0000 0.96715  0.33552  0.41834  Biso   1.000  O
  O13      1.0000 0.77601  0.12336  0.45386  Biso   1.000  O
  O14      1.0000 0.77392  0.12753  0.20486  Biso   1.000  O
  O15      1.0000 0.72396  0.37340  0.45502  Biso   1.000  O
  O16      1.0000 0.72177  0.37905  0.20701  Biso   1.000  O
  Hf9      1.0000 0.14076  0.02013  0.67327  Biso   1.000  Hf
  Hf10     1.0000 0.14000  0.22775  0.92258  Biso   1.000  Hf
  Hf11     1.0000 0.36311  0.27106  0.67407  Biso   1.000  Hf
  Hf12     1.0000 0.35978  0.48191  0.92370  Biso   1.000  Hf
  Hf13     1.0000 0.64050  0.01889  0.57889  Biso   1.000  Hf
  Hf14     1.0000 0.64774  0.22592  0.81761  Biso   1.000  Hf
  Hf15     1.0000 0.86293  0.27158  0.57748  Biso   1.000  Hf
  Hf16     1.0000 0.86674  0.48127  0.82700  Biso   1.000  Hf
  O17      1.0000 0.03284  0.16346  0.58429  Biso   1.000  O
  O18      1.0000 0.03698  0.08262  0.83303  Biso   1.000  O
  O19      1.0000 0.46939  0.41411  0.58321  Biso   1.000  O
  O20      1.0000 0.47165  0.33744  0.83340  Biso   1.000  O
  O21      1.0000 0.27893  0.12412  0.79647  Biso   1.000  O
  O22      1.0000 0.27656  0.12514  0.54815  Biso   1.000  O
  O23      1.0000 0.22657  0.37370  0.79733  Biso   1.000  O
  O24      1.0000 0.22561  0.37522  0.54785  Biso   1.000  O
  O25      1.0000 0.53429  0.16366  0.66667  Biso   1.000  O
  O26      1.0000 0.53675  0.07406  0.90744  Biso   1.000  O
  O27      1.0000 0.97029  0.41430  0.66675  Biso   1.000  O
  O28      1.0000 0.97173  0.33470  0.91551  Biso   1.000  O
  O29      1.0000 0.78812  0.12031  0.94679  Biso   1.000  O
  O30      1.0000 0.78141  0.12274  0.69956  Biso   1.000  O
  O31      1.0000 0.73758  0.38497  0.95104  Biso   1.000  O
  O32      1.0000 0.72785  0.37523  0.70254  Biso   1.000  O
  Hf17     1.0000 0.13704  0.52159  0.17161  Biso   1.000  Hf
  Hf18     1.0000 0.13902  0.72845  0.42154  Biso   1.000  Hf
  Hf19     1.0000 0.36124  0.77306  0.17294  Biso   1.000  Hf
  Hf20     1.0000 0.36190  0.97810  0.42490  Biso   1.000  Hf
  Hf21     1.0000 0.64091  0.53027  0.08086  Biso   1.000  Hf
  Hf22     1.0000 0.63967  0.73121  0.32932  Biso   1.000  Hf
  Hf23     1.0000 0.86247  0.77218  0.07882  Biso   1.000  Hf
  Hf24     1.0000 0.86129  0.97911  0.32818  Biso   1.000  Hf
  O33      1.0000 0.03311  0.66488  0.08309  Biso   1.000  O
  O34      1.0000 0.03291  0.58508  0.33263  Biso   1.000  O
  O35      1.0000 0.46854  0.91180  0.08038  Biso   1.000  O
  O36      1.0000 0.46824  0.83721  0.33412  Biso   1.000  O
  O37      1.0000 0.27616  0.62394  0.29510  Biso   1.000  O
  O38      1.0000 0.27525  0.62763  0.04490  Biso   1.000  O
  O39      1.0000 0.22432  0.87437  0.29675  Biso   1.000  O
  O40      1.0000 0.22300  0.87619  0.04732  Biso   1.000  O
  O41      1.0000 0.53601  0.67215  0.16703  Biso   1.000  O
  O42      1.0000 0.53304  0.58596  0.41651  Biso   1.000  O
  O43      1.0000 0.96704  0.91592  0.16739  Biso   1.000  O
  O44      1.0000 0.96746  0.83430  0.41661  Biso   1.000  O
  O45      1.0000 0.77690  0.62366  0.45446  Biso   1.000  O
  O46      1.0000 0.77794  0.62818  0.20538  Biso   1.000  O
  O47      1.0000 0.72505  0.87431  0.45576  Biso   1.000  O
  O48      1.0000 0.72540  0.87639  0.20545  Biso   1.000  O
  Hf25     1.0000 0.14119  0.52029  0.67179  Biso   1.000  Hf
  Hf26     1.0000 0.14020  0.73015  0.92246  Biso   1.000  Hf
  Hf27     1.0000 0.36297  0.76959  0.67254  Biso   1.000  Hf
  Hf28     1.0000 0.36254  0.97718  0.92212  Biso   1.000  Hf
  Hf29     1.0000 0.64006  0.52106  0.57733  Biso   1.000  Hf
  Hf30     1.0000 0.63986  0.72834  0.82784  Biso   1.000  Hf
  Hf31     1.0000 0.86373  0.77021  0.57841  Biso   1.000  Hf
  Hf32     1.0000 0.86466  0.97643  0.82792  Biso   1.000  Hf
  O49      1.0000 0.03459  0.66362  0.58251  Biso   1.000  O
  O50      1.0000 0.03679  0.58611  0.83284  Biso   1.000  O
  O51      1.0000 0.46912  0.91223  0.58437  Biso   1.000  O
  O52      1.0000 0.46741  0.83101  0.83344  Biso   1.000  O
  O53      1.0000 0.27831  0.62313  0.79599  Biso   1.000  O
  O54      1.0000 0.27711  0.62492  0.54544  Biso   1.000  O
  O55      1.0000 0.22550  0.87274  0.79585  Biso   1.000  O
  O56      1.0000 0.22527  0.87504  0.54606  Biso   1.000  O
  O57      1.0000 0.53377  0.66274  0.66730  Biso   1.000  O
  O58      1.0000 0.53395  0.58368  0.91858  Biso   1.000  O
  O59      1.0000 0.97031  0.91273  0.66633  Biso   1.000  O
  O60      1.0000 0.96940  0.83510  0.91871  Biso   1.000  O
  O61      1.0000 0.77752  0.62814  0.95458  Biso   1.000  O
  O62      1.0000 0.77778  0.62531  0.70399  Biso   1.000  O
  O63      1.0000 0.72561  0.87349  0.95527  Biso   1.000  O
  O64      1.0000 0.72598  0.87370  0.70535  Biso   1.000  O
  Ag1      1.0000 0.56268  0.27328  0.04136  Biso   1.000  Ag
