data_image0
_cell_length_a       10.1
_cell_length_b       10.2733
_cell_length_c       10.4456
_cell_angle_alpha    89.9055
_cell_angle_beta     80.7256
_cell_angle_gamma    89.8586

_symmetry_space_group_name_H-M    "P 1"
_symmetry_int_tables_number       1

loop_
  _symmetry_equiv_pos_as_xyz
  'x, y, z'

loop_
  _atom_site_label
  _atom_site_occupancy
  _atom_site_fract_x
  _atom_site_fract_y
  _atom_site_fract_z
  _atom_site_thermal_displace_type
  _atom_site_B_iso_or_equiv
  _atom_site_type_symbol
  Ag1      1.0000 0.12509  0.01454  0.16654  Biso   1.000  Ag
  Hf1      1.0000 0.13878  0.23230  0.39586  Biso   1.000  Hf
  Hf2      1.0000 0.35928  0.26897  0.09998  Biso   1.000  Hf
  Hf3      1.0000 0.36123  0.47925  0.35267  Biso   1.000  Hf
  O1       1.0000 0.04263  0.16723  0.08323  Biso   1.000  O
  O2       1.0000 0.02661  0.08233  0.35055  Biso   1.000  O
  O3       1.0000 0.46327  0.41914  0.16899  Biso   1.000  O
  O4       1.0000 0.46299  0.33052  0.41904  Biso   1.000  O
  O5       1.0000 0.27022  0.12429  0.23551  Biso   1.000  O
  O6       1.0000 0.27702  0.12216  0.48582  Biso   1.000  O
  O7       1.0000 0.22375  0.38161  0.00836  Biso   1.000  O
  O8       1.0000 0.22463  0.36968  0.25811  Biso   1.000  O
  Hf4      1.0000 0.13825  0.02078  0.64276  Biso   1.000  Hf
  Hf5      1.0000 0.14327  0.22420  0.89523  Biso   1.000  Hf
  Hf6      1.0000 0.36083  0.27163  0.60352  Biso   1.000  Hf
  Hf7      1.0000 0.36151  0.47916  0.85406  Biso   1.000  Hf
  O9       1.0000 0.03708  0.17286  0.58169  Biso   1.000  O
  O10      1.0000 0.03745  0.07878  0.82900  Biso   1.000  O
  O11      1.0000 0.46410  0.41959  0.66929  Biso   1.000  O
  O12      1.0000 0.46864  0.33534  0.92045  Biso   1.000  O
  O13      1.0000 0.27587  0.12739  0.73425  Biso   1.000  O
  O14      1.0000 0.29194  0.13269  0.97498  Biso   1.000  O
  O15      1.0000 0.22260  0.38010  0.50882  Biso   1.000  O
  O16      1.0000 0.22497  0.36944  0.75936  Biso   1.000  O
  Hf8      1.0000 0.13941  0.52178  0.14490  Biso   1.000  Hf
  Hf9      1.0000 0.13634  0.72683  0.39659  Biso   1.000  Hf
  Hf10     1.0000 0.36082  0.77348  0.10063  Biso   1.000  Hf
  Hf11     1.0000 0.36060  0.97843  0.35195  Biso   1.000  Hf
  O17      1.0000 0.03801  0.67291  0.08180  Biso   1.000  O
  O18      1.0000 0.03655  0.57854  0.33048  Biso   1.000  O
  O19      1.0000 0.46390  0.91874  0.17014  Biso   1.000  O
  O20      1.0000 0.46339  0.82975  0.41793  Biso   1.000  O
  O21      1.0000 0.27659  0.63103  0.24035  Biso   1.000  O
  O22      1.0000 0.27629  0.62060  0.49052  Biso   1.000  O
  O23      1.0000 0.22839  0.88030  0.00338  Biso   1.000  O
  O24      1.0000 0.21900  0.86823  0.25672  Biso   1.000  O
  Hf12     1.0000 0.13981  0.52125  0.64716  Biso   1.000  Hf
  Hf13     1.0000 0.14092  0.73194  0.89523  Biso   1.000  Hf
  Hf14     1.0000 0.36127  0.77198  0.60331  Biso   1.000  Hf
  Hf15     1.0000 0.36068  0.98165  0.85362  Biso   1.000  Hf
  O25      1.0000 0.03578  0.66910  0.58131  Biso   1.000  O
  O26      1.0000 0.03846  0.57915  0.83250  Biso   1.000  O
  O27      1.0000 0.46415  0.91998  0.66829  Biso   1.000  O
  O28      1.0000 0.46604  0.83208  0.91820  Biso   1.000  O
  O29      1.0000 0.27736  0.63001  0.74006  Biso   1.000  O
  O30      1.0000 0.27734  0.62159  0.99001  Biso   1.000  O
  O31      1.0000 0.22336  0.87940  0.50636  Biso   1.000  O
  O32      1.0000 0.22304  0.87110  0.75614  Biso   1.000  O
  Hf16     1.0000 0.63880  0.02110  0.14529  Biso   1.000  Hf
  Hf17     1.0000 0.63746  0.22921  0.39635  Biso   1.000  Hf
  Hf18     1.0000 0.86344  0.26867  0.10669  Biso   1.000  Hf
  Hf19     1.0000 0.86027  0.47891  0.35417  Biso   1.000  Hf
  O33      1.0000 0.53677  0.16982  0.08050  Biso   1.000  O
  O34      1.0000 0.53467  0.08037  0.33008  Biso   1.000  O
  O35      1.0000 0.96438  0.41975  0.17005  Biso   1.000  O
  O36      1.0000 0.96326  0.33257  0.42175  Biso   1.000  O
  O37      1.0000 0.77498  0.12854  0.24300  Biso   1.000  O
  O38      1.0000 0.77446  0.12124  0.49311  Biso   1.000  O
  O39      1.0000 0.72633  0.37809  0.01088  Biso   1.000  O
  O40      1.0000 0.72410  0.36983  0.25982  Biso   1.000  O
  Hf20     1.0000 0.63791  0.02171  0.64743  Biso   1.000  Hf
  Hf21     1.0000 0.64000  0.22914  0.89672  Biso   1.000  Hf
  Hf22     1.0000 0.86059  0.27220  0.60568  Biso   1.000  Hf
  Hf23     1.0000 0.86453  0.47686  0.85615  Biso   1.000  Hf
  O41      1.0000 0.53532  0.17001  0.58028  Biso   1.000  O
  O42      1.0000 0.53894  0.08053  0.82997  Biso   1.000  O
  O43      1.0000 0.96528  0.41861  0.67242  Biso   1.000  O
  O44      1.0000 0.96655  0.32747  0.92453  Biso   1.000  O
  O45      1.0000 0.77815  0.12986  0.74130  Biso   1.000  O
  O46      1.0000 0.77788  0.12029  0.99190  Biso   1.000  O
  O47      1.0000 0.72252  0.37919  0.50994  Biso   1.000  O
  O48      1.0000 0.72484  0.37136  0.76050  Biso   1.000  O
  Hf24     1.0000 0.63742  0.51972  0.14499  Biso   1.000  Hf
  Hf25     1.0000 0.63803  0.72737  0.39529  Biso   1.000  Hf
  Hf26     1.0000 0.86071  0.76821  0.10191  Biso   1.000  Hf
  Hf27     1.0000 0.85485  0.97812  0.35981  Biso   1.000  Hf
  O49      1.0000 0.53657  0.66929  0.07877  Biso   1.000  O
  O50      1.0000 0.53652  0.57920  0.32984  Biso   1.000  O
  O51      1.0000 0.95356  0.92498  0.17062  Biso   1.000  O
  O52      1.0000 0.96131  0.82822  0.41912  Biso   1.000  O
  O53      1.0000 0.77611  0.62844  0.24003  Biso   1.000  O
  O54      1.0000 0.77645  0.62053  0.49076  Biso   1.000  O
  O55      1.0000 0.72324  0.87908  0.00907  Biso   1.000  O
  O56      1.0000 0.72455  0.86980  0.25866  Biso   1.000  O
  Hf28     1.0000 0.63875  0.52130  0.64647  Biso   1.000  Hf
  Hf29     1.0000 0.63920  0.72866  0.89516  Biso   1.000  Hf
  Hf30     1.0000 0.86035  0.77050  0.60518  Biso   1.000  Hf
  Hf31     1.0000 0.86215  0.97926  0.85422  Biso   1.000  Hf
  O57      1.0000 0.53619  0.66942  0.57916  Biso   1.000  O
  O58      1.0000 0.53600  0.58206  0.82871  Biso   1.000  O
  O59      1.0000 0.96286  0.92023  0.66802  Biso   1.000  O
  O60      1.0000 0.96322  0.82872  0.91869  Biso   1.000  O
  O61      1.0000 0.77785  0.62832  0.74126  Biso   1.000  O
  O62      1.0000 0.77789  0.62012  0.99072  Biso   1.000  O
  O63      1.0000 0.72107  0.87864  0.51018  Biso   1.000  O
  O64      1.0000 0.72419  0.87063  0.75925  Biso   1.000  O
