data_image0
_cell_length_a       10.022
_cell_length_b       10.213
_cell_length_c       10.022
_cell_angle_alpha    89.9967
_cell_angle_beta     89.1962
_cell_angle_gamma    90.0033

_symmetry_space_group_name_H-M    "P 1"
_symmetry_int_tables_number       1

loop_
  _symmetry_equiv_pos_as_xyz
  'x, y, z'

loop_
  _atom_site_label
  _atom_site_occupancy
  _atom_site_fract_x
  _atom_site_fract_y
  _atom_site_fract_z
  _atom_site_thermal_displace_type
  _atom_site_B_iso_or_equiv
  _atom_site_type_symbol
  Ag1      1.0000 0.12490  0.97706  0.12491  Biso   1.000  Ag
  Hf1      1.0000 0.12874  0.25295  0.37119  Biso   1.000  Hf
  Hf2      1.0000 0.37115  0.25296  0.12879  Biso   1.000  Hf
  Hf3      1.0000 0.38071  0.00647  0.38082  Biso   1.000  Hf
  Hf4      1.0000 0.97565  0.15543  0.97571  Biso   1.000  Hf
  Hf5      1.0000 0.01502  0.10312  0.23478  Biso   1.000  Hf
  Hf6      1.0000 0.99940  0.35274  0.25045  Biso   1.000  Hf
  Hf7      1.0000 0.00130  0.40027  0.00134  Biso   1.000  Hf
  Hf8      1.0000 0.27410  0.15543  0.27415  Biso   1.000  Hf
  Hf9      1.0000 0.23472  0.10315  0.01508  Biso   1.000  Hf
  Hf10     1.0000 0.25041  0.35276  0.99944  Biso   1.000  Hf
  Hf11     1.0000 0.24851  0.40029  0.24854  Biso   1.000  Hf
  Hf12     1.0000 0.12490  0.99277  0.62496  Biso   1.000  Hf
  Hf13     1.0000 0.12106  0.25296  0.87871  Biso   1.000  Hf
  Hf14     1.0000 0.37221  0.24932  0.62849  Biso   1.000  Hf
  Hf15     1.0000 0.36884  0.00447  0.88101  Biso   1.000  Hf
  Hf16     1.0000 0.99829  0.14914  0.48599  Biso   1.000  Hf
  Hf17     1.0000 0.99369  0.10078  0.73450  Biso   1.000  Hf
  Hf18     1.0000 0.00011  0.35192  0.74877  Biso   1.000  Hf
  Hf19     1.0000 0.99931  0.39918  0.50075  Biso   1.000  Hf
  Hf20     1.0000 0.25142  0.14913  0.76387  Biso   1.000  Hf
  Hf21     1.0000 0.25604  0.10085  0.51534  Biso   1.000  Hf
  Hf22     1.0000 0.24969  0.35197  0.50111  Biso   1.000  Hf
  Hf23     1.0000 0.25048  0.39918  0.74914  Biso   1.000  Hf
  Hf24     1.0000 0.12493  0.50771  0.12491  Biso   1.000  Hf
  Hf25     1.0000 0.13107  0.75041  0.37909  Biso   1.000  Hf
  Hf26     1.0000 0.37911  0.75041  0.13102  Biso   1.000  Hf
  Hf27     1.0000 0.37547  0.49684  0.37548  Biso   1.000  Hf
  Hf28     1.0000 0.00387  0.64616  0.00384  Biso   1.000  Hf
  Hf29     1.0000 0.99695  0.60513  0.25279  Biso   1.000  Hf
  Hf30     1.0000 0.01270  0.85031  0.23713  Biso   1.000  Hf
  Hf31     1.0000 0.98422  0.89097  0.98411  Biso   1.000  Hf
  Hf32     1.0000 0.24591  0.64620  0.24588  Biso   1.000  Hf
  Hf33     1.0000 0.25282  0.60516  0.99693  Biso   1.000  Hf
  Hf34     1.0000 0.23726  0.85040  0.01257  Biso   1.000  Hf
  Hf35     1.0000 0.26572  0.89100  0.26560  Biso   1.000  Hf
  Hf36     1.0000 0.12493  0.50102  0.62491  Biso   1.000  Hf
  Hf37     1.0000 0.11883  0.75038  0.87073  Biso   1.000  Hf
  Hf38     1.0000 0.37874  0.74926  0.62783  Biso   1.000  Hf
  Hf39     1.0000 0.37504  0.49864  0.87482  Biso   1.000  Hf
  Hf40     1.0000 0.00148  0.64798  0.50333  Biso   1.000  Hf
  Hf41     1.0000 0.00077  0.60221  0.75430  Biso   1.000  Hf
  Hf42     1.0000 0.99925  0.84996  0.73895  Biso   1.000  Hf
  Hf43     1.0000 0.00700  0.89895  0.48813  Biso   1.000  Hf
  Hf44     1.0000 0.24832  0.64797  0.74638  Biso   1.000  Hf
  Hf45     1.0000 0.24901  0.60225  0.49545  Biso   1.000  Hf
  Hf46     1.0000 0.25075  0.85006  0.51074  Biso   1.000  Hf
  Hf47     1.0000 0.24300  0.89892  0.76159  Biso   1.000  Hf
  Hf48     1.0000 0.62493  0.99277  0.12497  Biso   1.000  Hf
  Hf49     1.0000 0.62845  0.24930  0.37226  Biso   1.000  Hf
  Hf50     1.0000 0.87867  0.25295  0.12112  Biso   1.000  Hf
  Hf51     1.0000 0.88090  0.00444  0.36895  Biso   1.000  Hf
  Hf52     1.0000 0.48591  0.14916  0.99834  Biso   1.000  Hf
  Hf53     1.0000 0.51529  0.10080  0.25608  Biso   1.000  Hf
  Hf54     1.0000 0.50108  0.35194  0.24974  Biso   1.000  Hf
  Hf55     1.0000 0.50072  0.39919  0.99935  Biso   1.000  Hf
  Hf56     1.0000 0.76379  0.14911  0.25147  Biso   1.000  Hf
  Hf57     1.0000 0.73443  0.10083  0.99373  Biso   1.000  Hf
  Hf58     1.0000 0.74874  0.35194  0.00016  Biso   1.000  Hf
  Hf59     1.0000 0.74912  0.39917  0.25053  Biso   1.000  Hf
  Hf60     1.0000 0.62485  0.00469  0.62498  Biso   1.000  Hf
  Hf61     1.0000 0.62136  0.24933  0.87763  Biso   1.000  Hf
  Hf62     1.0000 0.87757  0.24931  0.62141  Biso   1.000  Hf
  Hf63     1.0000 0.86900  0.00645  0.86912  Biso   1.000  Hf
  Hf64     1.0000 0.50430  0.15043  0.50437  Biso   1.000  Hf
  Hf65     1.0000 0.49724  0.10121  0.75254  Biso   1.000  Hf
  Hf66     1.0000 0.50023  0.35193  0.74961  Biso   1.000  Hf
  Hf67     1.0000 0.49964  0.39756  0.49968  Biso   1.000  Hf
  Hf68     1.0000 0.74542  0.15042  0.74549  Biso   1.000  Hf
  Hf69     1.0000 0.75248  0.10117  0.49730  Biso   1.000  Hf
  Hf70     1.0000 0.74955  0.35191  0.50028  Biso   1.000  Hf
  Hf71     1.0000 0.75016  0.39756  0.75020  Biso   1.000  Hf
  Hf72     1.0000 0.62493  0.50102  0.12494  Biso   1.000  Hf
  Hf73     1.0000 0.62785  0.74923  0.37872  Biso   1.000  Hf
  Hf74     1.0000 0.87076  0.75038  0.11878  Biso   1.000  Hf
  Hf75     1.0000 0.87482  0.49865  0.37505  Biso   1.000  Hf
  Hf76     1.0000 0.50337  0.64798  0.00147  Biso   1.000  Hf
  Hf77     1.0000 0.49547  0.60221  0.24902  Biso   1.000  Hf
  Hf78     1.0000 0.51087  0.84997  0.25061  Biso   1.000  Hf
  Hf79     1.0000 0.48824  0.89894  0.00687  Biso   1.000  Hf
  Hf80     1.0000 0.74642  0.64797  0.24830  Biso   1.000  Hf
  Hf81     1.0000 0.75432  0.60224  0.00077  Biso   1.000  Hf
  Hf82     1.0000 0.73908  0.85004  0.99911  Biso   1.000  Hf
  Hf83     1.0000 0.76171  0.89893  0.24287  Biso   1.000  Hf
  Hf84     1.0000 0.62491  0.49579  0.62493  Biso   1.000  Hf
  Hf85     1.0000 0.62202  0.74924  0.87111  Biso   1.000  Hf
  Hf86     1.0000 0.87113  0.74921  0.62200  Biso   1.000  Hf
  Hf87     1.0000 0.87437  0.49683  0.87438  Biso   1.000  Hf
  Hf88     1.0000 0.50029  0.64633  0.50028  Biso   1.000  Hf
  Hf89     1.0000 0.50007  0.60249  0.74973  Biso   1.000  Hf
  Hf90     1.0000 0.49344  0.85373  0.75641  Biso   1.000  Hf
  Hf91     1.0000 0.50384  0.89669  0.50371  Biso   1.000  Hf
  Hf92     1.0000 0.74951  0.64632  0.74951  Biso   1.000  Hf
  Hf93     1.0000 0.74973  0.60246  0.50007  Biso   1.000  Hf
  Hf94     1.0000 0.75658  0.85368  0.49327  Biso   1.000  Hf
  Hf95     1.0000 0.74613  0.89669  0.74600  Biso   1.000  Hf
