data_image0
_cell_length_a       10.1047
_cell_length_b       5.09337
_cell_length_c       10.4448
_cell_angle_alpha    90.0876
_cell_angle_beta     80.5576
_cell_angle_gamma    89.4942

_symmetry_space_group_name_H-M    "P 1"
_symmetry_int_tables_number       1

loop_
  _symmetry_equiv_pos_as_xyz
  'x, y, z'

loop_
  _atom_site_label
  _atom_site_occupancy
  _atom_site_fract_x
  _atom_site_fract_y
  _atom_site_fract_z
  _atom_site_thermal_displace_type
  _atom_site_B_iso_or_equiv
  _atom_site_type_symbol
  Al1      1.0000 0.12570  0.02218  0.16272  Biso   1.000  Al
  Hf1      1.0000 0.13746  0.45080  0.38951  Biso   1.000  Hf
  Hf2      1.0000 0.35244  0.54731  0.10366  Biso   1.000  Hf
  Hf3      1.0000 0.35717  0.95870  0.34928  Biso   1.000  Hf
  O1       1.0000 0.04664  0.30833  0.08065  Biso   1.000  O
  O2       1.0000 0.03415  0.15561  0.32622  Biso   1.000  O
  O3       1.0000 0.46692  0.82799  0.17207  Biso   1.000  O
  O4       1.0000 0.46471  0.66965  0.42059  Biso   1.000  O
  O5       1.0000 0.26720  0.24105  0.22808  Biso   1.000  O
  O6       1.0000 0.27641  0.24544  0.48442  Biso   1.000  O
  O7       1.0000 0.22144  0.80642  0.01852  Biso   1.000  O
  O8       1.0000 0.21842  0.74020  0.25914  Biso   1.000  O
  Hf4      1.0000 0.13865  0.04050  0.64339  Biso   1.000  Hf
  Hf5      1.0000 0.14055  0.45623  0.89577  Biso   1.000  Hf
  Hf6      1.0000 0.35961  0.54567  0.60318  Biso   1.000  Hf
  Hf7      1.0000 0.35879  0.96909  0.85707  Biso   1.000  Hf
  O9       1.0000 0.03366  0.32840  0.57544  Biso   1.000  O
  O10      1.0000 0.03465  0.16950  0.82757  Biso   1.000  O
  O11      1.0000 0.46489  0.83475  0.67236  Biso   1.000  O
  O12      1.0000 0.46791  0.68226  0.92441  Biso   1.000  O
  O13      1.0000 0.27447  0.25593  0.73352  Biso   1.000  O
  O14      1.0000 0.29483  0.29027  0.97043  Biso   1.000  O
  O15      1.0000 0.22197  0.75756  0.50770  Biso   1.000  O
  O16      1.0000 0.22441  0.74325  0.76143  Biso   1.000  O
  Hf8      1.0000 0.63851  0.04098  0.14563  Biso   1.000  Hf
  Hf9      1.0000 0.63824  0.45715  0.39537  Biso   1.000  Hf
  Hf10     1.0000 0.86997  0.53363  0.10703  Biso   1.000  Hf
  Hf11     1.0000 0.86010  0.95469  0.35498  Biso   1.000  Hf
  O17      1.0000 0.53313  0.33492  0.07924  Biso   1.000  O
  O18      1.0000 0.53253  0.16766  0.32741  Biso   1.000  O
  O19      1.0000 0.97170  0.82566  0.17390  Biso   1.000  O
  O20      1.0000 0.96288  0.65933  0.42210  Biso   1.000  O
  O21      1.0000 0.77643  0.25254  0.24113  Biso   1.000  O
  O22      1.0000 0.77548  0.24017  0.49158  Biso   1.000  O
  O23      1.0000 0.72724  0.75413  0.01214  Biso   1.000  O
  O24      1.0000 0.72671  0.73800  0.25976  Biso   1.000  O
  Hf12     1.0000 0.63829  0.04222  0.64730  Biso   1.000  Hf
  Hf13     1.0000 0.63906  0.46103  0.89920  Biso   1.000  Hf
  Hf14     1.0000 0.86007  0.53933  0.60559  Biso   1.000  Hf
  Hf15     1.0000 0.86219  0.95599  0.85661  Biso   1.000  Hf
  O25      1.0000 0.53357  0.33408  0.57779  Biso   1.000  O
  O26      1.0000 0.53618  0.17126  0.82820  Biso   1.000  O
  O27      1.0000 0.96616  0.82769  0.67392  Biso   1.000  O
  O28      1.0000 0.96727  0.66547  0.92697  Biso   1.000  O
  O29      1.0000 0.77729  0.25706  0.74183  Biso   1.000  O
  O30      1.0000 0.77787  0.24095  0.99205  Biso   1.000  O
  O31      1.0000 0.72197  0.75518  0.51125  Biso   1.000  O
  O32      1.0000 0.72410  0.74379  0.76190  Biso   1.000  O
