data_image0
_cell_length_a       4.98686
_cell_length_b       10.456
_cell_length_c       10.0875
_cell_angle_alpha    90.117
_cell_angle_beta     88.835
_cell_angle_gamma    90.473

_symmetry_space_group_name_H-M    "P 1"
_symmetry_int_tables_number       1

loop_
  _symmetry_equiv_pos_as_xyz
  'x, y, z'

loop_
  _atom_site_label
  _atom_site_occupancy
  _atom_site_fract_x
  _atom_site_fract_y
  _atom_site_fract_z
  _atom_site_thermal_displace_type
  _atom_site_B_iso_or_equiv
  _atom_site_type_symbol
  Hf1      1.0000 0.27103  0.02339  0.11514  Biso   1.000  Hf
  Hf2      1.0000 0.26991  0.22393  0.40246  Biso   1.000  Hf
  Hf3      1.0000 0.69832  0.25198  0.11232  Biso   1.000  Hf
  Hf4      1.0000 0.73996  0.47910  0.37577  Biso   1.000  Hf
  Hf5      1.0000 0.01454  0.17726  0.24289  Biso   1.000  Hf
  Hf6      1.0000 0.08181  0.05859  0.45968  Biso   1.000  Hf
  Hf7      1.0000 0.94633  0.42167  0.18013  Biso   1.000  Hf
  Hf8      1.0000 0.93850  0.32288  0.45601  Biso   1.000  Hf
  Hf9      1.0000 0.51278  0.11424  0.25739  Biso   1.000  Hf
  Hf10     1.0000 0.56266  0.13105  0.50696  Biso   1.000  Hf
  Hf11     1.0000 0.46978  0.38113  0.50371  Biso   1.000  Hf
  Hf12     1.0000 0.43197  0.36505  0.25364  Biso   1.000  Hf
  Hf13     1.0000 0.28293  0.01396  0.63226  Biso   1.000  Hf
  Hf14     1.0000 0.25637  0.22866  0.87597  Biso   1.000  Hf
  Hf15     1.0000 0.73689  0.26954  0.63605  Biso   1.000  Hf
  Hf16     1.0000 0.72661  0.48489  0.87286  Biso   1.000  Hf
  Hf17     1.0000 0.08115  0.18447  0.68837  Biso   1.000  Hf
  Hf18     1.0000 0.09974  0.05288  0.92614  Biso   1.000  Hf
  Hf19     1.0000 0.92318  0.44102  0.69319  Biso   1.000  Hf
  Hf20     1.0000 0.88752  0.31235  0.91678  Biso   1.000  Hf
  Hf21     1.0000 0.54693  0.11872  0.75277  Biso   1.000  Hf
  Hf22     1.0000 0.58996  0.11054  0.99375  Biso   1.000  Hf
  Hf23     1.0000 0.42931  0.38478  0.00718  Biso   1.000  Hf
  Hf24     1.0000 0.44651  0.37213  0.75318  Biso   1.000  Hf
  Hf25     1.0000 0.26987  0.54290  0.12364  Biso   1.000  Hf
  Hf26     1.0000 0.28048  0.73756  0.37830  Biso   1.000  Hf
  Hf27     1.0000 0.73239  0.77281  0.12455  Biso   1.000  Hf
  Hf28     1.0000 0.74734  0.98975  0.37094  Biso   1.000  Hf
  Hf29     1.0000 0.07303  0.69161  0.19712  Biso   1.000  Hf
  Hf30     1.0000 0.07547  0.56611  0.43839  Biso   1.000  Hf
  Hf31     1.0000 0.93045  0.93793  0.18764  Biso   1.000  Hf
  Hf32     1.0000 0.93481  0.81664  0.43841  Biso   1.000  Hf
  Hf33     1.0000 0.55691  0.61823  0.24735  Biso   1.000  Hf
  Hf34     1.0000 0.54695  0.62948  0.49611  Biso   1.000  Hf
  Hf35     1.0000 0.47189  0.88347  0.49911  Biso   1.000  Hf
  Hf36     1.0000 0.46635  0.86764  0.25003  Biso   1.000  Hf
  Hf37     1.0000 0.27077  0.51599  0.62444  Biso   1.000  Hf
  Hf38     1.0000 0.27030  0.73467  0.87097  Biso   1.000  Hf
  Hf39     1.0000 0.74213  0.76502  0.61908  Biso   1.000  Hf
  Hf40     1.0000 0.74178  0.97486  0.86985  Biso   1.000  Hf
  Hf41     1.0000 0.07909  0.68514  0.68900  Biso   1.000  Hf
  Hf42     1.0000 0.06712  0.56997  0.94477  Biso   1.000  Hf
  Hf43     1.0000 0.93828  0.92822  0.69051  Biso   1.000  Hf
  Hf44     1.0000 0.93006  0.81313  0.94323  Biso   1.000  Hf
  Hf45     1.0000 0.54096  0.61813  0.74669  Biso   1.000  Hf
  Hf46     1.0000 0.54011  0.63588  0.99671  Biso   1.000  Hf
  Hf47     1.0000 0.45719  0.87650  0.99955  Biso   1.000  Hf
  Hf48     1.0000 0.47008  0.86512  0.74723  Biso   1.000  Hf
  Al1      1.0000 0.19209  0.29017  0.13851  Biso   1.000  Al
