data_image0
_cell_length_a       9.93526
_cell_length_b       10.3264
_cell_length_c       4.99734
_cell_angle_alpha    90.7087
_cell_angle_beta     89.399
_cell_angle_gamma    90.3061

_symmetry_space_group_name_H-M    "P 1"
_symmetry_int_tables_number       1

loop_
  _symmetry_equiv_pos_as_xyz
  'x, y, z'

loop_
  _atom_site_label
  _atom_site_occupancy
  _atom_site_fract_x
  _atom_site_fract_y
  _atom_site_fract_z
  _atom_site_thermal_displace_type
  _atom_site_B_iso_or_equiv
  _atom_site_type_symbol
  Al1      1.0000 0.12590  0.03059  0.21958  Biso   1.000  Al
  Hf1      1.0000 0.13211  0.22929  0.74076  Biso   1.000  Hf
  Hf2      1.0000 0.36356  0.26110  0.24709  Biso   1.000  Hf
  Hf3      1.0000 0.36666  0.48307  0.75159  Biso   1.000  Hf
  Hf4      1.0000 0.03240  0.17897  0.38117  Biso   1.000  Hf
  Hf5      1.0000 0.03364  0.06697  0.90098  Biso   1.000  Hf
  Hf6      1.0000 0.46458  0.43198  0.38846  Biso   1.000  Hf
  Hf7      1.0000 0.46401  0.31626  0.88945  Biso   1.000  Hf
  Hf8      1.0000 0.25936  0.10477  0.48110  Biso   1.000  Hf
  Hf9      1.0000 0.26491  0.13479  0.99057  Biso   1.000  Hf
  Hf10     1.0000 0.22877  0.38222  0.99486  Biso   1.000  Hf
  Hf11     1.0000 0.23013  0.36247  0.49484  Biso   1.000  Hf
  Hf12     1.0000 0.13630  0.51456  0.25220  Biso   1.000  Hf
  Hf13     1.0000 0.13581  0.73456  0.76582  Biso   1.000  Hf
  Hf14     1.0000 0.36479  0.76845  0.26156  Biso   1.000  Hf
  Hf15     1.0000 0.35641  0.98419  0.75856  Biso   1.000  Hf
  Hf16     1.0000 0.03714  0.68418  0.39483  Biso   1.000  Hf
  Hf17     1.0000 0.03442  0.56525  0.89705  Biso   1.000  Hf
  Hf18     1.0000 0.46995  0.93263  0.40556  Biso   1.000  Hf
  Hf19     1.0000 0.46597  0.82091  0.90460  Biso   1.000  Hf
  Hf20     1.0000 0.26927  0.61089  0.50310  Biso   1.000  Hf
  Hf21     1.0000 0.27186  0.63391  0.00405  Biso   1.000  Hf
  Hf22     1.0000 0.22249  0.89198  0.03980  Biso   1.000  Hf
  Hf23     1.0000 0.24384  0.85311  0.53795  Biso   1.000  Hf
  Hf24     1.0000 0.63259  0.01513  0.24443  Biso   1.000  Hf
  Hf25     1.0000 0.63335  0.23309  0.74836  Biso   1.000  Hf
  Hf26     1.0000 0.86532  0.26522  0.24402  Biso   1.000  Hf
  Hf27     1.0000 0.86515  0.48512  0.75029  Biso   1.000  Hf
  Hf28     1.0000 0.53274  0.18320  0.39207  Biso   1.000  Hf
  Hf29     1.0000 0.53125  0.06874  0.89506  Biso   1.000  Hf
  Hf30     1.0000 0.96589  0.43199  0.38973  Biso   1.000  Hf
  Hf31     1.0000 0.96274  0.31584  0.88144  Biso   1.000  Hf
  Hf32     1.0000 0.76923  0.11625  0.48958  Biso   1.000  Hf
  Hf33     1.0000 0.76934  0.13405  0.98906  Biso   1.000  Hf
  Hf34     1.0000 0.72888  0.38408  0.99658  Biso   1.000  Hf
  Hf35     1.0000 0.72907  0.36721  0.49550  Biso   1.000  Hf
  Hf36     1.0000 0.63436  0.51797  0.25319  Biso   1.000  Hf
  Hf37     1.0000 0.63507  0.73721  0.75232  Biso   1.000  Hf
  Hf38     1.0000 0.87306  0.76979  0.24572  Biso   1.000  Hf
  Hf39     1.0000 0.87164  0.98649  0.73855  Biso   1.000  Hf
  Hf40     1.0000 0.53459  0.68367  0.39852  Biso   1.000  Hf
  Hf41     1.0000 0.53604  0.56821  0.89177  Biso   1.000  Hf
  Hf42     1.0000 0.98338  0.93720  0.38144  Biso   1.000  Hf
  Hf43     1.0000 0.96245  0.81688  0.87973  Biso   1.000  Hf
  Hf44     1.0000 0.77194  0.61769  0.49854  Biso   1.000  Hf
  Hf45     1.0000 0.76990  0.63571  0.00004  Biso   1.000  Hf
  Hf46     1.0000 0.73287  0.88617  0.99028  Biso   1.000  Hf
  Hf47     1.0000 0.73617  0.86705  0.48978  Biso   1.000  Hf
