data_image0
_cell_length_a       5.07023
_cell_length_b       10.4056
_cell_length_c       10.0144
_cell_angle_alpha    89.0259
_cell_angle_beta     91.5898
_cell_angle_gamma    89.6681

_symmetry_space_group_name_H-M    "P 1"
_symmetry_int_tables_number       1

loop_
  _symmetry_equiv_pos_as_xyz
  'x, y, z'

loop_
  _atom_site_label
  _atom_site_occupancy
  _atom_site_fract_x
  _atom_site_fract_y
  _atom_site_fract_z
  _atom_site_thermal_displace_type
  _atom_site_B_iso_or_equiv
  _atom_site_type_symbol
  Hf1      1.0000 0.21935  0.01490  0.14081  Biso   1.000  Hf
  Hf2      1.0000 0.21636  0.22716  0.42063  Biso   1.000  Hf
  Hf3      1.0000 0.73202  0.24766  0.12254  Biso   1.000  Hf
  Hf4      1.0000 0.75415  0.97164  0.38593  Biso   1.000  Hf
  Hf5      1.0000 0.07600  0.19094  0.03585  Biso   1.000  Hf
  Hf6      1.0000 0.94408  0.09754  0.25848  Biso   1.000  Hf
  Hf7      1.0000 0.97077  0.33107  0.27593  Biso   1.000  Hf
  Hf8      1.0000 0.96448  0.42374  0.05074  Biso   1.000  Hf
  Hf9      1.0000 0.41266  0.18916  0.23322  Biso   1.000  Hf
  Hf10     1.0000 0.54974  0.11253  0.99125  Biso   1.000  Hf
  Hf11     1.0000 0.45182  0.35478  0.00927  Biso   1.000  Hf
  Hf12     1.0000 0.45592  0.42947  0.23504  Biso   1.000  Hf
  Hf13     1.0000 0.22365  0.01017  0.63402  Biso   1.000  Hf
  Hf14     1.0000 0.31179  0.23199  0.85687  Biso   1.000  Hf
  Hf15     1.0000 0.81974  0.25214  0.65045  Biso   1.000  Hf
  Hf16     1.0000 0.72266  0.97804  0.86221  Biso   1.000  Hf
  Hf17     1.0000 0.91802  0.11313  0.51430  Biso   1.000  Hf
  Hf18     1.0000 0.01984  0.10650  0.78579  Biso   1.000  Hf
  Hf19     1.0000 0.04256  0.36831  0.78482  Biso   1.000  Hf
  Hf20     1.0000 0.00115  0.38220  0.51480  Biso   1.000  Hf
  Hf21     1.0000 0.53719  0.11566  0.73383  Biso   1.000  Hf
  Hf22     1.0000 0.41743  0.06031  0.46556  Biso   1.000  Hf
  Hf23     1.0000 0.52935  0.33049  0.50108  Biso   1.000  Hf
  Hf24     1.0000 0.56349  0.37014  0.76343  Biso   1.000  Hf
  Hf25     1.0000 0.25842  0.56342  0.10652  Biso   1.000  Hf
  Hf26     1.0000 0.22002  0.72594  0.38507  Biso   1.000  Hf
  Hf27     1.0000 0.74829  0.77732  0.12001  Biso   1.000  Hf
  Hf28     1.0000 0.74441  0.48592  0.37510  Biso   1.000  Hf
  Hf29     1.0000 0.01807  0.68162  0.98171  Biso   1.000  Hf
  Hf30     1.0000 0.96353  0.60995  0.23948  Biso   1.000  Hf
  Hf31     1.0000 0.02592  0.85739  0.25659  Biso   1.000  Hf
  Hf32     1.0000 0.96167  0.93127  0.01812  Biso   1.000  Hf
  Hf33     1.0000 0.45607  0.68790  0.22698  Biso   1.000  Hf
  Hf34     1.0000 0.55033  0.62625  0.98791  Biso   1.000  Hf
  Hf35     1.0000 0.48192  0.86007  0.97325  Biso   1.000  Hf
  Hf36     1.0000 0.54549  0.93012  0.21736  Biso   1.000  Hf
  Hf37     1.0000 0.29698  0.46444  0.63404  Biso   1.000  Hf
  Hf38     1.0000 0.29863  0.73333  0.84337  Biso   1.000  Hf
  Hf39     1.0000 0.77984  0.74578  0.62324  Biso   1.000  Hf
  Hf40     1.0000 0.81313  0.51330  0.87562  Biso   1.000  Hf
  Hf41     1.0000 0.92985  0.62797  0.48415  Biso   1.000  Hf
  Hf42     1.0000 0.04462  0.60805  0.72996  Biso   1.000  Hf
  Hf43     1.0000 0.99678  0.85940  0.75968  Biso   1.000  Hf
  Hf44     1.0000 0.03782  0.86936  0.51075  Biso   1.000  Hf
  Hf45     1.0000 0.54362  0.61779  0.72927  Biso   1.000  Hf
  Hf46     1.0000 0.42704  0.56617  0.47146  Biso   1.000  Hf
  Hf47     1.0000 0.55031  0.81383  0.46536  Biso   1.000  Hf
  Hf48     1.0000 0.49533  0.87030  0.71894  Biso   1.000  Hf
  Al1      1.0000 0.22512  0.31746  0.14525  Biso   1.000  Al
