data_image0
_cell_length_a       10.0172
_cell_length_b       10.1475
_cell_length_c       5.21372
_cell_angle_alpha    90.0458
_cell_angle_beta     90.8511
_cell_angle_gamma    89.5392

_symmetry_space_group_name_H-M    "P 1"
_symmetry_int_tables_number       1

loop_
  _symmetry_equiv_pos_as_xyz
  'x, y, z'

loop_
  _atom_site_label
  _atom_site_occupancy
  _atom_site_fract_x
  _atom_site_fract_y
  _atom_site_fract_z
  _atom_site_thermal_displace_type
  _atom_site_B_iso_or_equiv
  _atom_site_type_symbol
  Al1      1.0000 0.12194  0.00968  0.37631  Biso   1.000  Al
  Hf1      1.0000 0.14225  0.22395  0.83458  Biso   1.000  Hf
  Hf2      1.0000 0.35617  0.26807  0.33771  Biso   1.000  Hf
  Hf3      1.0000 0.35961  0.47871  0.84579  Biso   1.000  Hf
  Hf4      1.0000 0.63762  0.02126  0.15285  Biso   1.000  Hf
  Hf5      1.0000 0.64000  0.23025  0.65643  Biso   1.000  Hf
  Hf6      1.0000 0.87086  0.26418  0.16500  Biso   1.000  Hf
  Hf7      1.0000 0.86321  0.47765  0.66510  Biso   1.000  Hf
  O1       1.0000 0.04730  0.14910  0.17067  Biso   1.000  O
  O2       1.0000 0.03055  0.08319  0.66218  Biso   1.000  O
  O3       1.0000 0.46769  0.41473  0.16861  Biso   1.000  O
  O4       1.0000 0.46861  0.33608  0.66610  Biso   1.000  O
  O5       1.0000 0.26578  0.11458  0.54746  Biso   1.000  O
  O6       1.0000 0.30079  0.14763  0.03801  Biso   1.000  O
  O7       1.0000 0.22474  0.37247  0.59405  Biso   1.000  O
  O8       1.0000 0.22006  0.38247  0.09241  Biso   1.000  O
  O9       1.0000 0.53378  0.16668  0.32842  Biso   1.000  O
  O10      1.0000 0.53514  0.08207  0.82027  Biso   1.000  O
  O11      1.0000 0.97178  0.41008  0.34553  Biso   1.000  O
  O12      1.0000 0.97048  0.33281  0.84597  Biso   1.000  O
  O13      1.0000 0.77829  0.12264  0.91201  Biso   1.000  O
  O14      1.0000 0.77720  0.12511  0.40897  Biso   1.000  O
  O15      1.0000 0.72770  0.37181  0.91671  Biso   1.000  O
  O16      1.0000 0.72810  0.37466  0.41356  Biso   1.000  O
  Hf8      1.0000 0.14035  0.52284  0.34714  Biso   1.000  Hf
  Hf9      1.0000 0.13905  0.73402  0.84709  Biso   1.000  Hf
  Hf10     1.0000 0.35574  0.77846  0.34200  Biso   1.000  Hf
  Hf11     1.0000 0.35484  0.98314  0.83768  Biso   1.000  Hf
  Hf12     1.0000 0.63979  0.51951  0.15915  Biso   1.000  Hf
  Hf13     1.0000 0.63664  0.72845  0.65616  Biso   1.000  Hf
  Hf14     1.0000 0.86030  0.77125  0.16181  Biso   1.000  Hf
  Hf15     1.0000 0.85863  0.97835  0.65885  Biso   1.000  Hf
  O17      1.0000 0.03226  0.66478  0.17030  Biso   1.000  O
  O18      1.0000 0.03335  0.58671  0.67334  Biso   1.000  O
  O19      1.0000 0.46708  0.91500  0.16025  Biso   1.000  O
  O20      1.0000 0.46469  0.83720  0.66417  Biso   1.000  O
  O21      1.0000 0.27632  0.62596  0.59177  Biso   1.000  O
  O22      1.0000 0.27683  0.63235  0.09096  Biso   1.000  O
  O23      1.0000 0.21445  0.87559  0.58783  Biso   1.000  O
  O24      1.0000 0.21794  0.89191  0.09825  Biso   1.000  O
  O25      1.0000 0.53032  0.66580  0.33070  Biso   1.000  O
  O26      1.0000 0.53209  0.58471  0.83268  Biso   1.000  O
  O27      1.0000 0.96860  0.91302  0.33961  Biso   1.000  O
  O28      1.0000 0.96445  0.83514  0.83903  Biso   1.000  O
  O29      1.0000 0.77610  0.62248  0.91280  Biso   1.000  O
  O30      1.0000 0.77626  0.62516  0.41344  Biso   1.000  O
  O31      1.0000 0.72176  0.87249  0.91016  Biso   1.000  O
  O32      1.0000 0.72251  0.87584  0.41015  Biso   1.000  O
