data_image0
_cell_length_a       9.98022
_cell_length_b       5.24986
_cell_length_c       10.0664
_cell_angle_alpha    90.0117
_cell_angle_beta     90.0258
_cell_angle_gamma    90.0689

_symmetry_space_group_name_H-M    "P 1"
_symmetry_int_tables_number       1

loop_
  _symmetry_equiv_pos_as_xyz
  'x, y, z'

loop_
  _atom_site_label
  _atom_site_occupancy
  _atom_site_fract_x
  _atom_site_fract_y
  _atom_site_fract_z
  _atom_site_thermal_displace_type
  _atom_site_B_iso_or_equiv
  _atom_site_type_symbol
  Hf1      1.0000 0.13757  0.14319  0.10537  Biso   1.000  Hf
  Hf2      1.0000 0.13760  0.45765  0.39256  Biso   1.000  Hf
  Hf3      1.0000 0.36664  0.52748  0.12358  Biso   1.000  Hf
  Hf4      1.0000 0.36309  0.95765  0.37603  Biso   1.000  Hf
  Hf5      1.0000 0.01420  0.39420  0.21397  Biso   1.000  Hf
  Hf6      1.0000 0.03619  0.12525  0.44889  Biso   1.000  Hf
  Hf7      1.0000 0.45847  0.86500  0.19568  Biso   1.000  Hf
  Hf8      1.0000 0.46322  0.62277  0.44473  Biso   1.000  Hf
  Hf9      1.0000 0.27193  0.23453  0.25574  Biso   1.000  Hf
  Hf10     1.0000 0.27434  0.25110  0.50388  Biso   1.000  Hf
  Hf11     1.0000 0.23032  0.75565  0.50318  Biso   1.000  Hf
  Hf12     1.0000 0.22147  0.71508  0.25383  Biso   1.000  Hf
  Hf13     1.0000 0.13431  0.02468  0.63002  Biso   1.000  Hf
  Hf14     1.0000 0.14234  0.46042  0.87002  Biso   1.000  Hf
  Hf15     1.0000 0.36955  0.52656  0.62628  Biso   1.000  Hf
  Hf16     1.0000 0.37115  0.95864  0.87261  Biso   1.000  Hf
  Hf17     1.0000 0.03949  0.36413  0.68734  Biso   1.000  Hf
  Hf18     1.0000 0.03577  0.13656  0.92526  Biso   1.000  Hf
  Hf19     1.0000 0.47109  0.85585  0.69361  Biso   1.000  Hf
  Hf20     1.0000 0.46835  0.63194  0.94522  Biso   1.000  Hf
  Hf21     1.0000 0.27276  0.22837  0.74637  Biso   1.000  Hf
  Hf22     1.0000 0.29687  0.26056  0.98461  Biso   1.000  Hf
  Hf23     1.0000 0.22770  0.78990  0.00426  Biso   1.000  Hf
  Hf24     1.0000 0.23563  0.73469  0.74958  Biso   1.000  Hf
  Hf25     1.0000 0.62582  0.02684  0.12467  Biso   1.000  Hf
  Hf26     1.0000 0.63062  0.45368  0.37870  Biso   1.000  Hf
  Hf27     1.0000 0.83718  0.52399  0.12762  Biso   1.000  Hf
  Hf28     1.0000 0.86987  0.96160  0.37405  Biso   1.000  Hf
  Hf29     1.0000 0.53684  0.36174  0.19467  Biso   1.000  Hf
  Hf30     1.0000 0.53423  0.12132  0.44518  Biso   1.000  Hf
  Hf31     1.0000 0.97203  0.87546  0.18809  Biso   1.000  Hf
  Hf32     1.0000 0.96613  0.63496  0.44810  Biso   1.000  Hf
  Hf33     1.0000 0.76443  0.22201  0.24963  Biso   1.000  Hf
  Hf34     1.0000 0.77185  0.25768  0.49770  Biso   1.000  Hf
  Hf35     1.0000 0.73204  0.75884  0.49973  Biso   1.000  Hf
  Hf36     1.0000 0.72354  0.73402  0.25357  Biso   1.000  Hf
  Hf37     1.0000 0.63843  0.02302  0.62413  Biso   1.000  Hf
  Hf38     1.0000 0.63217  0.45759  0.87110  Biso   1.000  Hf
  Hf39     1.0000 0.86788  0.52547  0.62421  Biso   1.000  Hf
  Hf40     1.0000 0.86599  0.95744  0.87593  Biso   1.000  Hf
  Hf41     1.0000 0.53904  0.35817  0.69224  Biso   1.000  Hf
  Hf42     1.0000 0.54332  0.12275  0.93943  Biso   1.000  Hf
  Hf43     1.0000 0.96801  0.85082  0.70228  Biso   1.000  Hf
  Hf44     1.0000 0.97317  0.63638  0.96667  Biso   1.000  Hf
  Hf45     1.0000 0.77447  0.22456  0.74834  Biso   1.000  Hf
  Hf46     1.0000 0.76955  0.25907  0.99834  Biso   1.000  Hf
  Hf47     1.0000 0.72721  0.75792  0.00069  Biso   1.000  Hf
  Hf48     1.0000 0.73410  0.72414  0.75074  Biso   1.000  Hf
  Al1      1.0000 0.09728  0.65100  0.11833  Biso   1.000  Al
