data_image0
_cell_length_a       10.0135
_cell_length_b       5.30293
_cell_length_c       9.98924
_cell_angle_alpha    90.0007
_cell_angle_beta     88.2692
_cell_angle_gamma    90.0002

_symmetry_space_group_name_H-M    "P 1"
_symmetry_int_tables_number       1

loop_
  _symmetry_equiv_pos_as_xyz
  'x, y, z'

loop_
  _atom_site_label
  _atom_site_occupancy
  _atom_site_fract_x
  _atom_site_fract_y
  _atom_site_fract_z
  _atom_site_thermal_displace_type
  _atom_site_B_iso_or_equiv
  _atom_site_type_symbol
  Hf1      1.0000 0.12490  0.78458  0.12488  Biso   1.000  Hf
  Hf2      1.0000 0.14359  0.50676  0.40915  Biso   1.000  Hf
  Hf3      1.0000 0.41019  0.50022  0.15813  Biso   1.000  Hf
  Hf4      1.0000 0.36579  0.02317  0.37624  Biso   1.000  Hf
  Hf5      1.0000 0.99556  0.27534  0.99018  Biso   1.000  Hf
  Hf6      1.0000 0.01982  0.03551  0.22131  Biso   1.000  Hf
  Hf7      1.0000 0.02321  0.50085  0.22146  Biso   1.000  Hf
  Hf8      1.0000 0.98495  0.74545  0.97962  Biso   1.000  Hf
  Hf9      1.0000 0.25424  0.27535  0.25958  Biso   1.000  Hf
  Hf10     1.0000 0.22998  0.03550  0.02844  Biso   1.000  Hf
  Hf11     1.0000 0.22659  0.50085  0.02830  Biso   1.000  Hf
  Hf12     1.0000 0.26486  0.74548  0.27014  Biso   1.000  Hf
  Hf13     1.0000 0.12489  0.05159  0.62487  Biso   1.000  Hf
  Hf14     1.0000 0.10623  0.50673  0.84062  Biso   1.000  Hf
  Hf15     1.0000 0.39954  0.60167  0.62675  Biso   1.000  Hf
  Hf16     1.0000 0.37339  0.02118  0.87413  Biso   1.000  Hf
  Hf17     1.0000 0.03335  0.20334  0.46667  Biso   1.000  Hf
  Hf18     1.0000 0.96894  0.29481  0.73133  Biso   1.000  Hf
  Hf19     1.0000 0.00650  0.78729  0.73295  Biso   1.000  Hf
  Hf20     1.0000 0.98281  0.72308  0.46678  Biso   1.000  Hf
  Hf21     1.0000 0.21644  0.20328  0.78308  Biso   1.000  Hf
  Hf22     1.0000 0.28086  0.29482  0.51843  Biso   1.000  Hf
  Hf23     1.0000 0.24332  0.78730  0.51682  Biso   1.000  Hf
  Hf24     1.0000 0.26702  0.72300  0.78301  Biso   1.000  Hf
  Hf25     1.0000 0.62491  0.96399  0.12487  Biso   1.000  Hf
  Hf26     1.0000 0.65630  0.51057  0.35239  Biso   1.000  Hf
  Hf27     1.0000 0.83962  0.50019  0.09164  Biso   1.000  Hf
  Hf28     1.0000 0.87641  0.02120  0.37563  Biso   1.000  Hf
  Hf29     1.0000 0.47999  0.24822  0.01211  Biso   1.000  Hf
  Hf30     1.0000 0.51305  0.23856  0.27284  Biso   1.000  Hf
  Hf31     1.0000 0.51050  0.76540  0.28143  Biso   1.000  Hf
  Hf32     1.0000 0.46980  0.77143  0.01663  Biso   1.000  Hf
  Hf33     1.0000 0.76980  0.24821  0.23765  Biso   1.000  Hf
  Hf34     1.0000 0.73674  0.23851  0.97693  Biso   1.000  Hf
  Hf35     1.0000 0.73932  0.76536  0.96832  Biso   1.000  Hf
  Hf36     1.0000 0.78002  0.77142  0.23313  Biso   1.000  Hf
  Hf37     1.0000 0.62490  0.11146  0.62488  Biso   1.000  Hf
  Hf38     1.0000 0.59350  0.51055  0.89738  Biso   1.000  Hf
  Hf39     1.0000 0.85027  0.60166  0.62302  Biso   1.000  Hf
  Hf40     1.0000 0.88402  0.02315  0.87352  Biso   1.000  Hf
  Hf41     1.0000 0.53789  0.41829  0.51501  Biso   1.000  Hf
  Hf42     1.0000 0.47230  0.29621  0.75806  Biso   1.000  Hf
  Hf43     1.0000 0.52043  0.80115  0.76625  Biso   1.000  Hf
  Hf44     1.0000 0.47472  0.92400  0.53419  Biso   1.000  Hf
  Hf45     1.0000 0.71192  0.41828  0.73476  Biso   1.000  Hf
  Hf46     1.0000 0.77751  0.29625  0.49169  Biso   1.000  Hf
  Hf47     1.0000 0.72938  0.80118  0.48351  Biso   1.000  Hf
  Hf48     1.0000 0.77509  0.92400  0.71558  Biso   1.000  Hf
  Al1      1.0000 0.12490  0.26867  0.12488  Biso   1.000  Al
