data_image0
_cell_length_a       10.1044
_cell_length_b       10.2577
_cell_length_c       10.458
_cell_angle_alpha    90.0271
_cell_angle_beta     80.5027
_cell_angle_gamma    89.7956

_symmetry_space_group_name_H-M    "P 1"
_symmetry_int_tables_number       1

loop_
  _symmetry_equiv_pos_as_xyz
  'x, y, z'

loop_
  _atom_site_label
  _atom_site_occupancy
  _atom_site_fract_x
  _atom_site_fract_y
  _atom_site_fract_z
  _atom_site_thermal_displace_type
  _atom_site_B_iso_or_equiv
  _atom_site_type_symbol
  As1      1.0000 0.11232  0.02152  0.16076  Biso   1.000  As
  Hf1      1.0000 0.14179  0.23045  0.39470  Biso   1.000  Hf
  Hf2      1.0000 0.35855  0.26830  0.10285  Biso   1.000  Hf
  Hf3      1.0000 0.36088  0.47883  0.35289  Biso   1.000  Hf
  O1       1.0000 0.04074  0.15990  0.08183  Biso   1.000  O
  O2       1.0000 0.03431  0.08031  0.32319  Biso   1.000  O
  O3       1.0000 0.46339  0.41823  0.16992  Biso   1.000  O
  O4       1.0000 0.46397  0.33105  0.41989  Biso   1.000  O
  O5       1.0000 0.27503  0.13047  0.24187  Biso   1.000  O
  O6       1.0000 0.27715  0.12125  0.48916  Biso   1.000  O
  O7       1.0000 0.22311  0.38068  0.00902  Biso   1.000  O
  O8       1.0000 0.22268  0.37206  0.25900  Biso   1.000  O
  Hf4      1.0000 0.13868  0.02063  0.64443  Biso   1.000  Hf
  Hf5      1.0000 0.14395  0.22630  0.89434  Biso   1.000  Hf
  Hf6      1.0000 0.36181  0.27169  0.60373  Biso   1.000  Hf
  Hf7      1.0000 0.36185  0.47923  0.85465  Biso   1.000  Hf
  O9       1.0000 0.03426  0.16463  0.57389  Biso   1.000  O
  O10      1.0000 0.03597  0.08227  0.82787  Biso   1.000  O
  O11      1.0000 0.46498  0.41914  0.67014  Biso   1.000  O
  O12      1.0000 0.46797  0.33521  0.92095  Biso   1.000  O
  O13      1.0000 0.27612  0.12838  0.73603  Biso   1.000  O
  O14      1.0000 0.28857  0.13158  0.97830  Biso   1.000  O
  O15      1.0000 0.22270  0.37858  0.50873  Biso   1.000  O
  O16      1.0000 0.22523  0.37030  0.75933  Biso   1.000  O
  Hf8      1.0000 0.13946  0.52193  0.14526  Biso   1.000  Hf
  Hf9      1.0000 0.13845  0.72817  0.39576  Biso   1.000  Hf
  Hf10     1.0000 0.35783  0.77544  0.10396  Biso   1.000  Hf
  Hf11     1.0000 0.35926  0.97896  0.35191  Biso   1.000  Hf
  O17      1.0000 0.03589  0.67047  0.08062  Biso   1.000  O
  O18      1.0000 0.03491  0.58121  0.32952  Biso   1.000  O
  O19      1.0000 0.46481  0.91914  0.17048  Biso   1.000  O
  O20      1.0000 0.46429  0.83105  0.41969  Biso   1.000  O
  O21      1.0000 0.27620  0.62946  0.24011  Biso   1.000  O
  O22      1.0000 0.27657  0.62057  0.49040  Biso   1.000  O
  O23      1.0000 0.22407  0.88133  0.00641  Biso   1.000  O
  O24      1.0000 0.22172  0.86925  0.26059  Biso   1.000  O
  Hf12     1.0000 0.13978  0.52177  0.64653  Biso   1.000  Hf
  Hf13     1.0000 0.14049  0.73124  0.89566  Biso   1.000  Hf
  Hf14     1.0000 0.36157  0.77229  0.60387  Biso   1.000  Hf
  Hf15     1.0000 0.35995  0.98121  0.85551  Biso   1.000  Hf
  O25      1.0000 0.03513  0.66773  0.58003  Biso   1.000  O
  O26      1.0000 0.03698  0.58091  0.83065  Biso   1.000  O
  O27      1.0000 0.46428  0.91933  0.67040  Biso   1.000  O
  O28      1.0000 0.46458  0.83326  0.92091  Biso   1.000  O
  O29      1.0000 0.27708  0.62974  0.74006  Biso   1.000  O
  O30      1.0000 0.27664  0.62215  0.99040  Biso   1.000  O
  O31      1.0000 0.22313  0.87890  0.50874  Biso   1.000  O
  O32      1.0000 0.22330  0.87137  0.75819  Biso   1.000  O
  Hf16     1.0000 0.63815  0.02194  0.14557  Biso   1.000  Hf
  Hf17     1.0000 0.63803  0.22869  0.39581  Biso   1.000  Hf
  Hf18     1.0000 0.86114  0.27041  0.10577  Biso   1.000  Hf
  Hf19     1.0000 0.86132  0.47810  0.35384  Biso   1.000  Hf
  O33      1.0000 0.53689  0.16983  0.08002  Biso   1.000  O
  O34      1.0000 0.53625  0.08028  0.33005  Biso   1.000  O
  O35      1.0000 0.96572  0.41670  0.17082  Biso   1.000  O
  O36      1.0000 0.96440  0.33004  0.41963  Biso   1.000  O
  O37      1.0000 0.77689  0.12809  0.24135  Biso   1.000  O
  O38      1.0000 0.77637  0.12004  0.49112  Biso   1.000  O
  O39      1.0000 0.72584  0.37874  0.01075  Biso   1.000  O
  O40      1.0000 0.72385  0.36986  0.25932  Biso   1.000  O
  Hf20     1.0000 0.63773  0.02136  0.64768  Biso   1.000  Hf
  Hf21     1.0000 0.63931  0.22931  0.89619  Biso   1.000  Hf
  Hf22     1.0000 0.86174  0.27113  0.60412  Biso   1.000  Hf
  Hf23     1.0000 0.86405  0.47698  0.85548  Biso   1.000  Hf
  O41      1.0000 0.53646  0.16966  0.57992  Biso   1.000  O
  O42      1.0000 0.53780  0.08118  0.83006  Biso   1.000  O
  O43      1.0000 0.96701  0.41555  0.67240  Biso   1.000  O
  O44      1.0000 0.96708  0.32939  0.92533  Biso   1.000  O
  O45      1.0000 0.77770  0.12947  0.74025  Biso   1.000  O
  O46      1.0000 0.77795  0.12112  0.99115  Biso   1.000  O
  O47      1.0000 0.72392  0.37851  0.50985  Biso   1.000  O
  O48      1.0000 0.72516  0.37142  0.76035  Biso   1.000  O
  Hf24     1.0000 0.63630  0.52107  0.14530  Biso   1.000  Hf
  Hf25     1.0000 0.63756  0.72716  0.39606  Biso   1.000  Hf
  Hf26     1.0000 0.86034  0.76848  0.10245  Biso   1.000  Hf
  Hf27     1.0000 0.85389  0.97688  0.35888  Biso   1.000  Hf
  O49      1.0000 0.53481  0.66977  0.07969  Biso   1.000  O
  O50      1.0000 0.53563  0.57991  0.32975  Biso   1.000  O
  O51      1.0000 0.96269  0.92264  0.17120  Biso   1.000  O
  O52      1.0000 0.96337  0.83240  0.42077  Biso   1.000  O
  O53      1.0000 0.77584  0.62796  0.23992  Biso   1.000  O
  O54      1.0000 0.77681  0.62040  0.49058  Biso   1.000  O
  O55      1.0000 0.72350  0.87943  0.01011  Biso   1.000  O
  O56      1.0000 0.72632  0.86990  0.25964  Biso   1.000  O
  Hf28     1.0000 0.63943  0.52123  0.64657  Biso   1.000  Hf
  Hf29     1.0000 0.63784  0.72919  0.89650  Biso   1.000  Hf
  Hf30     1.0000 0.86069  0.77040  0.60541  Biso   1.000  Hf
  Hf31     1.0000 0.86191  0.97922  0.85406  Biso   1.000  Hf
  O57      1.0000 0.53600  0.66850  0.57930  Biso   1.000  O
  O58      1.0000 0.53568  0.58281  0.82892  Biso   1.000  O
  O59      1.0000 0.96416  0.91761  0.67071  Biso   1.000  O
  O60      1.0000 0.96403  0.83127  0.92105  Biso   1.000  O
  O61      1.0000 0.77767  0.62829  0.74131  Biso   1.000  O
  O62      1.0000 0.77730  0.62106  0.99090  Biso   1.000  O
  O63      1.0000 0.72130  0.87798  0.51079  Biso   1.000  O
  O64      1.0000 0.72374  0.87078  0.76018  Biso   1.000  O
