data_image0
_cell_length_a       10.0668
_cell_length_b       5.00724
_cell_length_c       10.0673
_cell_angle_alpha    90.0001
_cell_angle_beta     90
_cell_angle_gamma    89.9998

_symmetry_space_group_name_H-M    "P 1"
_symmetry_int_tables_number       1

loop_
  _symmetry_equiv_pos_as_xyz
  'x, y, z'

loop_
  _atom_site_label
  _atom_site_occupancy
  _atom_site_fract_x
  _atom_site_fract_y
  _atom_site_fract_z
  _atom_site_thermal_displace_type
  _atom_site_B_iso_or_equiv
  _atom_site_type_symbol
  As1      1.0000 0.12491  0.00011  0.12491  Biso   1.000  As
  Hf1      1.0000 0.12491  0.50011  0.37555  Biso   1.000  Hf
  Hf2      1.0000 0.37554  0.50011  0.12491  Biso   1.000  Hf
  Hf3      1.0000 0.37472  0.00753  0.37472  Biso   1.000  Hf
  Hf4      1.0000 0.97818  0.29496  0.97815  Biso   1.000  Hf
  Hf5      1.0000 0.01767  0.22051  0.23210  Biso   1.000  Hf
  Hf6      1.0000 0.97818  0.70526  0.27167  Biso   1.000  Hf
  Hf7      1.0000 0.01768  0.77972  0.01772  Biso   1.000  Hf
  Hf8      1.0000 0.27164  0.29494  0.27166  Biso   1.000  Hf
  Hf9      1.0000 0.23214  0.22051  0.01771  Biso   1.000  Hf
  Hf10     1.0000 0.27164  0.70527  0.97815  Biso   1.000  Hf
  Hf11     1.0000 0.23214  0.77970  0.23210  Biso   1.000  Hf
  Hf12     1.0000 0.12491  0.00011  0.62491  Biso   1.000  Hf
  Hf13     1.0000 0.12491  0.50011  0.87427  Biso   1.000  Hf
  Hf14     1.0000 0.37511  0.50011  0.62491  Biso   1.000  Hf
  Hf15     1.0000 0.37472  0.99268  0.87510  Biso   1.000  Hf
  Hf16     1.0000 0.98648  0.26385  0.48165  Biso   1.000  Hf
  Hf17     1.0000 0.01120  0.24476  0.73382  Biso   1.000  Hf
  Hf18     1.0000 0.98648  0.73637  0.76817  Biso   1.000  Hf
  Hf19     1.0000 0.01119  0.75545  0.51600  Biso   1.000  Hf
  Hf20     1.0000 0.26333  0.26385  0.76817  Biso   1.000  Hf
  Hf21     1.0000 0.23862  0.24475  0.51599  Biso   1.000  Hf
  Hf22     1.0000 0.26333  0.73637  0.48165  Biso   1.000  Hf
  Hf23     1.0000 0.23862  0.75546  0.73382  Biso   1.000  Hf
  Hf24     1.0000 0.62491  0.00011  0.12491  Biso   1.000  Hf
  Hf25     1.0000 0.62491  0.50011  0.37510  Biso   1.000  Hf
  Hf26     1.0000 0.87427  0.50011  0.12491  Biso   1.000  Hf
  Hf27     1.0000 0.87510  0.99268  0.37472  Biso   1.000  Hf
  Hf28     1.0000 0.48167  0.26388  0.98644  Biso   1.000  Hf
  Hf29     1.0000 0.51595  0.24475  0.23857  Biso   1.000  Hf
  Hf30     1.0000 0.48167  0.73633  0.26338  Biso   1.000  Hf
  Hf31     1.0000 0.51595  0.75547  0.01124  Biso   1.000  Hf
  Hf32     1.0000 0.76814  0.26388  0.26338  Biso   1.000  Hf
  Hf33     1.0000 0.73386  0.24475  0.01124  Biso   1.000  Hf
  Hf34     1.0000 0.76814  0.73634  0.98644  Biso   1.000  Hf
  Hf35     1.0000 0.73386  0.75547  0.23857  Biso   1.000  Hf
  Hf36     1.0000 0.62491  0.00011  0.62491  Biso   1.000  Hf
  Hf37     1.0000 0.62491  0.50011  0.87472  Biso   1.000  Hf
  Hf38     1.0000 0.87471  0.50011  0.62491  Biso   1.000  Hf
  Hf39     1.0000 0.87510  0.00754  0.87510  Biso   1.000  Hf
  Hf40     1.0000 0.48691  0.26411  0.48687  Biso   1.000  Hf
  Hf41     1.0000 0.51185  0.24448  0.73792  Biso   1.000  Hf
  Hf42     1.0000 0.48691  0.73610  0.76295  Biso   1.000  Hf
  Hf43     1.0000 0.51185  0.75574  0.51190  Biso   1.000  Hf
  Hf44     1.0000 0.76290  0.26411  0.76295  Biso   1.000  Hf
  Hf45     1.0000 0.73797  0.24448  0.51189  Biso   1.000  Hf
  Hf46     1.0000 0.76291  0.73611  0.48687  Biso   1.000  Hf
  Hf47     1.0000 0.73797  0.75573  0.73792  Biso   1.000  Hf
