data_image0
_cell_length_a       5.03408
_cell_length_b       10.3902
_cell_length_c       10.2063
_cell_angle_alpha    88.7969
_cell_angle_beta     92.246
_cell_angle_gamma    91.2178

_symmetry_space_group_name_H-M    "P 1"
_symmetry_int_tables_number       1

loop_
  _symmetry_equiv_pos_as_xyz
  'x, y, z'

loop_
  _atom_site_label
  _atom_site_occupancy
  _atom_site_fract_x
  _atom_site_fract_y
  _atom_site_fract_z
  _atom_site_thermal_displace_type
  _atom_site_B_iso_or_equiv
  _atom_site_type_symbol
  Hf1      1.0000 0.26805  0.99107  0.10094  Biso   1.000  Hf
  Hf2      1.0000 0.23467  0.23037  0.39907  Biso   1.000  Hf
  Hf3      1.0000 0.61477  0.25681  0.15323  Biso   1.000  Hf
  Hf4      1.0000 0.73094  0.48954  0.38220  Biso   1.000  Hf
  Hf5      1.0000 0.89312  0.17993  0.27869  Biso   1.000  Hf
  Hf6      1.0000 0.06677  0.06069  0.46666  Biso   1.000  Hf
  Hf7      1.0000 0.89334  0.44244  0.20835  Biso   1.000  Hf
  Hf8      1.0000 0.94991  0.33675  0.46807  Biso   1.000  Hf
  Hf9      1.0000 0.41029  0.10730  0.25162  Biso   1.000  Hf
  Hf10     1.0000 0.55292  0.13931  0.49932  Biso   1.000  Hf
  Hf11     1.0000 0.47346  0.38598  0.50518  Biso   1.000  Hf
  Hf12     1.0000 0.40239  0.37297  0.26613  Biso   1.000  Hf
  Hf13     1.0000 0.29453  0.01212  0.62657  Biso   1.000  Hf
  Hf14     1.0000 0.33848  0.22343  0.86069  Biso   1.000  Hf
  Hf15     1.0000 0.76249  0.27055  0.62955  Biso   1.000  Hf
  Hf16     1.0000 0.74572  0.48762  0.86961  Biso   1.000  Hf
  Hf17     1.0000 0.12013  0.18490  0.68113  Biso   1.000  Hf
  Hf18     1.0000 0.11093  0.05674  0.91970  Biso   1.000  Hf
  Hf19     1.0000 0.94015  0.44382  0.69375  Biso   1.000  Hf
  Hf20     1.0000 0.98447  0.31092  0.89191  Biso   1.000  Hf
  Hf21     1.0000 0.58704  0.11333  0.74854  Biso   1.000  Hf
  Hf22     1.0000 0.57966  0.11448  0.00385  Biso   1.000  Hf
  Hf23     1.0000 0.51771  0.38104  0.99474  Biso   1.000  Hf
  Hf24     1.0000 0.48778  0.36753  0.74574  Biso   1.000  Hf
  Hf25     1.0000 0.24736  0.52057  0.13452  Biso   1.000  Hf
  Hf26     1.0000 0.27278  0.74284  0.37672  Biso   1.000  Hf
  Hf27     1.0000 0.73301  0.76151  0.12890  Biso   1.000  Hf
  Hf28     1.0000 0.74142  0.00180  0.36110  Biso   1.000  Hf
  Hf29     1.0000 0.07321  0.68443  0.19882  Biso   1.000  Hf
  Hf30     1.0000 0.06867  0.57907  0.44869  Biso   1.000  Hf
  Hf31     1.0000 0.92823  0.94110  0.18716  Biso   1.000  Hf
  Hf32     1.0000 0.93459  0.82427  0.43811  Biso   1.000  Hf
  Hf33     1.0000 0.53476  0.62079  0.25309  Biso   1.000  Hf
  Hf34     1.0000 0.54120  0.63857  0.49968  Biso   1.000  Hf
  Hf35     1.0000 0.47490  0.89069  0.49366  Biso   1.000  Hf
  Hf36     1.0000 0.47113  0.86476  0.24137  Biso   1.000  Hf
  Hf37     1.0000 0.27501  0.51547  0.62063  Biso   1.000  Hf
  Hf38     1.0000 0.28222  0.72848  0.87136  Biso   1.000  Hf
  Hf39     1.0000 0.75366  0.77077  0.61679  Biso   1.000  Hf
  Hf40     1.0000 0.76095  0.97234  0.87236  Biso   1.000  Hf
  Hf41     1.0000 0.07766  0.68291  0.69687  Biso   1.000  Hf
  Hf42     1.0000 0.07941  0.56432  0.95183  Biso   1.000  Hf
  Hf43     1.0000 0.96084  0.92759  0.70009  Biso   1.000  Hf
  Hf44     1.0000 0.97044  0.81639  0.95935  Biso   1.000  Hf
  Hf45     1.0000 0.54417  0.61608  0.74919  Biso   1.000  Hf
  Hf46     1.0000 0.54884  0.63061  0.00098  Biso   1.000  Hf
  Hf47     1.0000 0.48683  0.87159  0.99144  Biso   1.000  Hf
  Hf48     1.0000 0.49146  0.86146  0.74586  Biso   1.000  Hf
  As1      1.0000 0.05808  0.26309  0.06294  Biso   1.000  As
