data_image0
_cell_length_a       5.10923
_cell_length_b       10.3935
_cell_length_c       10.5295
_cell_angle_alpha    89.248
_cell_angle_beta     79.3969
_cell_angle_gamma    89.1004

_symmetry_space_group_name_H-M    "P 1"
_symmetry_int_tables_number       1

loop_
  _symmetry_equiv_pos_as_xyz
  'x, y, z'

loop_
  _atom_site_label
  _atom_site_occupancy
  _atom_site_fract_x
  _atom_site_fract_y
  _atom_site_fract_z
  _atom_site_thermal_displace_type
  _atom_site_B_iso_or_equiv
  _atom_site_type_symbol
  Hf1      1.0000 0.26060  0.01255  0.14242  Biso   1.000  Hf
  Hf2      1.0000 0.34861  0.24263  0.40527  Biso   1.000  Hf
  Hf3      1.0000 0.70840  0.26978  0.10639  Biso   1.000  Hf
  Hf4      1.0000 0.72555  0.49141  0.35591  Biso   1.000  Hf
  O1       1.0000 0.04759  0.15485  0.07176  Biso   1.000  O
  O2       1.0000 0.03426  0.05597  0.32907  Biso   1.000  O
  O3       1.0000 0.93292  0.42298  0.17214  Biso   1.000  O
  O4       1.0000 0.98117  0.38208  0.44784  Biso   1.000  O
  O5       1.0000 0.51317  0.11901  0.23922  Biso   1.000  O
  O6       1.0000 0.56330  0.10577  0.49656  Biso   1.000  O
  O7       1.0000 0.43729  0.37769  0.01276  Biso   1.000  O
  O8       1.0000 0.45604  0.38459  0.26113  Biso   1.000  O
  Hf5      1.0000 0.27336  0.02141  0.64631  Biso   1.000  Hf
  Hf6      1.0000 0.27167  0.22771  0.89554  Biso   1.000  Hf
  Hf7      1.0000 0.74655  0.27684  0.61022  Biso   1.000  Hf
  Hf8      1.0000 0.71832  0.47711  0.85975  Biso   1.000  Hf
  O9       1.0000 0.08586  0.17042  0.57070  Biso   1.000  O
  O10      1.0000 0.05845  0.08852  0.82360  Biso   1.000  O
  O11      1.0000 0.94671  0.40810  0.68860  Biso   1.000  O
  O12      1.0000 0.92776  0.33611  0.93128  Biso   1.000  O
  O13      1.0000 0.54653  0.13138  0.74019  Biso   1.000  O
  O14      1.0000 0.53960  0.12140  0.98995  Biso   1.000  O
  O15      1.0000 0.47588  0.38187  0.51769  Biso   1.000  O
  O16      1.0000 0.45572  0.37318  0.76451  Biso   1.000  O
  Hf9      1.0000 0.27628  0.52391  0.14588  Biso   1.000  Hf
  Hf10     1.0000 0.26196  0.72680  0.39760  Biso   1.000  Hf
  Hf11     1.0000 0.71440  0.76921  0.10103  Biso   1.000  Hf
  Hf12     1.0000 0.68627  0.96373  0.35399  Biso   1.000  Hf
  O17      1.0000 0.06235  0.66677  0.07286  Biso   1.000  O
  O18      1.0000 0.05831  0.59729  0.31825  Biso   1.000  O
  O19      1.0000 0.91026  0.90956  0.16962  Biso   1.000  O
  O20      1.0000 0.90849  0.82661  0.42424  Biso   1.000  O
  O21      1.0000 0.54742  0.63184  0.24155  Biso   1.000  O
  O22      1.0000 0.53710  0.62321  0.49280  Biso   1.000  O
  O23      1.0000 0.44086  0.87762  0.00687  Biso   1.000  O
  O24      1.0000 0.42289  0.86536  0.25770  Biso   1.000  O
  Hf13     1.0000 0.27345  0.52352  0.65066  Biso   1.000  Hf
  Hf14     1.0000 0.26927  0.72834  0.89479  Biso   1.000  Hf
  Hf15     1.0000 0.71463  0.77294  0.60668  Biso   1.000  Hf
  Hf16     1.0000 0.71759  0.98059  0.85205  Biso   1.000  Hf
  O25      1.0000 0.05143  0.66092  0.57927  Biso   1.000  O
  O26      1.0000 0.06017  0.58626  0.82859  Biso   1.000  O
  O27      1.0000 0.92518  0.91810  0.67014  Biso   1.000  O
  O28      1.0000 0.92641  0.83532  0.91874  Biso   1.000  O
  O29      1.0000 0.54372  0.62865  0.74096  Biso   1.000  O
  O30      1.0000 0.54605  0.62095  0.99040  Biso   1.000  O
  O31      1.0000 0.42403  0.87257  0.51208  Biso   1.000  O
  O32      1.0000 0.44459  0.87360  0.76015  Biso   1.000  O
  As1      1.0000 0.94421  0.23288  0.30925  Biso   1.000  As
