data_image0
_cell_length_a       5.08752
_cell_length_b       10.4709
_cell_length_c       10.3071
_cell_angle_alpha    89.0164
_cell_angle_beta     86.1421
_cell_angle_gamma    85.4707

_symmetry_space_group_name_H-M    "P 1"
_symmetry_int_tables_number       1

loop_
  _symmetry_equiv_pos_as_xyz
  'x, y, z'

loop_
  _atom_site_label
  _atom_site_occupancy
  _atom_site_fract_x
  _atom_site_fract_y
  _atom_site_fract_z
  _atom_site_thermal_displace_type
  _atom_site_B_iso_or_equiv
  _atom_site_type_symbol
  Hf1      1.0000 0.29051  0.98228  0.13671  Biso   1.000  Hf
  Hf2      1.0000 0.28943  0.20238  0.38224  Biso   1.000  Hf
  Hf3      1.0000 0.59554  0.23963  0.09565  Biso   1.000  Hf
  Hf4      1.0000 0.76434  0.96240  0.37174  Biso   1.000  Hf
  Hf5      1.0000 0.91113  0.18871  0.96804  Biso   1.000  Hf
  Hf6      1.0000 0.07887  0.05377  0.29877  Biso   1.000  Hf
  Hf7      1.0000 0.97405  0.31532  0.32846  Biso   1.000  Hf
  Hf8      1.0000 0.02814  0.44033  0.95234  Biso   1.000  Hf
  Hf9      1.0000 0.56726  0.10420  0.24836  Biso   1.000  Hf
  Hf10     1.0000 0.44894  0.09978  0.99318  Biso   1.000  Hf
  Hf11     1.0000 0.49362  0.37323  0.96484  Biso   1.000  Hf
  Hf12     1.0000 0.47215  0.38297  0.22834  Biso   1.000  Hf
  Hf13     1.0000 0.27378  0.99542  0.62574  Biso   1.000  Hf
  Hf14     1.0000 0.22579  0.26613  0.85167  Biso   1.000  Hf
  Hf15     1.0000 0.72592  0.26636  0.60648  Biso   1.000  Hf
  Hf16     1.0000 0.79197  0.02161  0.87334  Biso   1.000  Hf
  Hf17     1.0000 0.05643  0.15515  0.53809  Biso   1.000  Hf
  Hf18     1.0000 0.09731  0.09719  0.77238  Biso   1.000  Hf
  Hf19     1.0000 0.96853  0.35087  0.73174  Biso   1.000  Hf
  Hf20     1.0000 0.88240  0.42934  0.51851  Biso   1.000  Hf
  Hf21     1.0000 0.57056  0.17042  0.75964  Biso   1.000  Hf
  Hf22     1.0000 0.55116  0.09092  0.50365  Biso   1.000  Hf
  Hf23     1.0000 0.44236  0.34276  0.48211  Biso   1.000  Hf
  Hf24     1.0000 0.45912  0.41092  0.72326  Biso   1.000  Hf
  Hf25     1.0000 0.25690  0.51664  0.08667  Biso   1.000  Hf
  Hf26     1.0000 0.27877  0.74765  0.39870  Biso   1.000  Hf
  Hf27     1.0000 0.74958  0.72528  0.14366  Biso   1.000  Hf
  Hf28     1.0000 0.68386  0.47759  0.35370  Biso   1.000  Hf
  Hf29     1.0000 0.07180  0.68488  0.01573  Biso   1.000  Hf
  Hf30     1.0000 0.94262  0.55584  0.22100  Biso   1.000  Hf
  Hf31     1.0000 0.99958  0.81648  0.26275  Biso   1.000  Hf
  Hf32     1.0000 0.05045  0.93537  0.00391  Biso   1.000  Hf
  Hf33     1.0000 0.45320  0.63084  0.24517  Biso   1.000  Hf
  Hf34     1.0000 0.56160  0.61290  0.99524  Biso   1.000  Hf
  Hf35     1.0000 0.55620  0.85732  0.01701  Biso   1.000  Hf
  Hf36     1.0000 0.50900  0.86658  0.26412  Biso   1.000  Hf
  Hf37     1.0000 0.18553  0.49739  0.59692  Biso   1.000  Hf
  Hf38     1.0000 0.31284  0.78145  0.89373  Biso   1.000  Hf
  Hf39     1.0000 0.79966  0.76512  0.65138  Biso   1.000  Hf
  Hf40     1.0000 0.71746  0.50051  0.83807  Biso   1.000  Hf
  Hf41     1.0000 0.98752  0.66214  0.50125  Biso   1.000  Hf
  Hf42     1.0000 0.99571  0.60556  0.74015  Biso   1.000  Hf
  Hf43     1.0000 0.04501  0.86025  0.76198  Biso   1.000  Hf
  Hf44     1.0000 0.02623  0.90073  0.51430  Biso   1.000  Hf
  Hf45     1.0000 0.51540  0.66932  0.75591  Biso   1.000  Hf
  Hf46     1.0000 0.46204  0.58979  0.48518  Biso   1.000  Hf
  Hf47     1.0000 0.52925  0.84234  0.51267  Biso   1.000  Hf
  Hf48     1.0000 0.54590  0.91667  0.75952  Biso   1.000  Hf
  As1      1.0000 0.04850  0.27480  0.15763  Biso   1.000  As
