data_image0
_cell_length_a       10.0021
_cell_length_b       10.4018
_cell_length_c       10.0661
_cell_angle_alpha    89.8221
_cell_angle_beta     91.4044
_cell_angle_gamma    90.1688

_symmetry_space_group_name_H-M    "P 1"
_symmetry_int_tables_number       1

loop_
  _symmetry_equiv_pos_as_xyz
  'x, y, z'

loop_
  _atom_site_label
  _atom_site_occupancy
  _atom_site_fract_x
  _atom_site_fract_y
  _atom_site_fract_z
  _atom_site_thermal_displace_type
  _atom_site_B_iso_or_equiv
  _atom_site_type_symbol
  Hf1      1.0000 0.13386  0.01539  0.12150  Biso   1.000  Hf
  Hf2      1.0000 0.13131  0.23425  0.37862  Biso   1.000  Hf
  Hf3      1.0000 0.36772  0.26918  0.12117  Biso   1.000  Hf
  Hf4      1.0000 0.36535  0.48389  0.37347  Biso   1.000  Hf
  Hf5      1.0000 0.01818  0.17838  0.20692  Biso   1.000  Hf
  Hf6      1.0000 0.04128  0.05964  0.43822  Biso   1.000  Hf
  Hf7      1.0000 0.46135  0.43690  0.19460  Biso   1.000  Hf
  Hf8      1.0000 0.46098  0.31524  0.44330  Biso   1.000  Hf
  Hf9      1.0000 0.26498  0.11912  0.24407  Biso   1.000  Hf
  Hf10     1.0000 0.27306  0.13159  0.49434  Biso   1.000  Hf
  Hf11     1.0000 0.22912  0.38364  0.49536  Biso   1.000  Hf
  Hf12     1.0000 0.22641  0.36418  0.24539  Biso   1.000  Hf
  Hf13     1.0000 0.13511  0.00750  0.61866  Biso   1.000  Hf
  Hf14     1.0000 0.15524  0.22246  0.84727  Biso   1.000  Hf
  Hf15     1.0000 0.37242  0.26546  0.62026  Biso   1.000  Hf
  Hf16     1.0000 0.37429  0.48769  0.87147  Biso   1.000  Hf
  Hf17     1.0000 0.05216  0.17880  0.66935  Biso   1.000  Hf
  Hf18     1.0000 0.04184  0.06068  0.93561  Biso   1.000  Hf
  Hf19     1.0000 0.46596  0.43334  0.69049  Biso   1.000  Hf
  Hf20     1.0000 0.47273  0.31561  0.94242  Biso   1.000  Hf
  Hf21     1.0000 0.28211  0.10836  0.73970  Biso   1.000  Hf
  Hf22     1.0000 0.28394  0.12751  0.99247  Biso   1.000  Hf
  Hf23     1.0000 0.25232  0.39558  0.99515  Biso   1.000  Hf
  Hf24     1.0000 0.23600  0.36760  0.74093  Biso   1.000  Hf
  Hf25     1.0000 0.13042  0.51574  0.12496  Biso   1.000  Hf
  Hf26     1.0000 0.13450  0.73385  0.37391  Biso   1.000  Hf
  Hf27     1.0000 0.36345  0.76565  0.12786  Biso   1.000  Hf
  Hf28     1.0000 0.36478  0.98467  0.37419  Biso   1.000  Hf
  Hf29     1.0000 0.03763  0.68302  0.19302  Biso   1.000  Hf
  Hf30     1.0000 0.03991  0.56998  0.44161  Biso   1.000  Hf
  Hf31     1.0000 0.46234  0.93583  0.19663  Biso   1.000  Hf
  Hf32     1.0000 0.46506  0.81669  0.44527  Biso   1.000  Hf
  Hf33     1.0000 0.27089  0.61823  0.25051  Biso   1.000  Hf
  Hf34     1.0000 0.27178  0.63279  0.49966  Biso   1.000  Hf
  Hf35     1.0000 0.23423  0.88071  0.49666  Biso   1.000  Hf
  Hf36     1.0000 0.22893  0.86813  0.24756  Biso   1.000  Hf
  Hf37     1.0000 0.13522  0.51869  0.62129  Biso   1.000  Hf
  Hf38     1.0000 0.13439  0.73426  0.87551  Biso   1.000  Hf
  Hf39     1.0000 0.36944  0.76551  0.62643  Biso   1.000  Hf
  Hf40     1.0000 0.37175  0.97883  0.87729  Biso   1.000  Hf
  Hf41     1.0000 0.03919  0.68549  0.69526  Biso   1.000  Hf
  Hf42     1.0000 0.03563  0.56109  0.94278  Biso   1.000  Hf
  Hf43     1.0000 0.47125  0.92917  0.69900  Biso   1.000  Hf
  Hf44     1.0000 0.46747  0.81463  0.95136  Biso   1.000  Hf
  Hf45     1.0000 0.27158  0.61787  0.74969  Biso   1.000  Hf
  Hf46     1.0000 0.26865  0.63694  0.00036  Biso   1.000  Hf
  Hf47     1.0000 0.23131  0.88328  0.99947  Biso   1.000  Hf
  Hf48     1.0000 0.23451  0.86388  0.74936  Biso   1.000  Hf
  Hf49     1.0000 0.63095  0.01291  0.12877  Biso   1.000  Hf
  Hf50     1.0000 0.63019  0.22962  0.39228  Biso   1.000  Hf
  Hf51     1.0000 0.82686  0.26621  0.16219  Biso   1.000  Hf
  Hf52     1.0000 0.86584  0.48344  0.39264  Biso   1.000  Hf
  Hf53     1.0000 0.53921  0.18644  0.19533  Biso   1.000  Hf
  Hf54     1.0000 0.53390  0.06497  0.45271  Biso   1.000  Hf
  Hf55     1.0000 0.95473  0.43733  0.21719  Biso   1.000  Hf
  Hf56     1.0000 0.95907  0.30983  0.44663  Biso   1.000  Hf
  Hf57     1.0000 0.75774  0.11095  0.26789  Biso   1.000  Hf
  Hf58     1.0000 0.77531  0.12960  0.51219  Biso   1.000  Hf
  Hf59     1.0000 0.72708  0.37551  0.51267  Biso   1.000  Hf
  Hf60     1.0000 0.70932  0.37974  0.27156  Biso   1.000  Hf
  Hf61     1.0000 0.63901  0.01560  0.63255  Biso   1.000  Hf
  Hf62     1.0000 0.63928  0.23270  0.88100  Biso   1.000  Hf
  Hf63     1.0000 0.87315  0.26942  0.63912  Biso   1.000  Hf
  Hf64     1.0000 0.86174  0.48606  0.87443  Biso   1.000  Hf
  Hf65     1.0000 0.54198  0.18396  0.69450  Biso   1.000  Hf
  Hf66     1.0000 0.54333  0.06306  0.94331  Biso   1.000  Hf
  Hf67     1.0000 0.95147  0.45269  0.66414  Biso   1.000  Hf
  Hf68     1.0000 0.96703  0.31241  0.85250  Biso   1.000  Hf
  Hf69     1.0000 0.77566  0.11820  0.76014  Biso   1.000  Hf
  Hf70     1.0000 0.77259  0.13297  0.01463  Biso   1.000  Hf
  Hf71     1.0000 0.73717  0.38142  0.01146  Biso   1.000  Hf
  Hf72     1.0000 0.72552  0.37220  0.75816  Biso   1.000  Hf
  Hf73     1.0000 0.63305  0.52103  0.13311  Biso   1.000  Hf
  Hf74     1.0000 0.63406  0.73424  0.37947  Biso   1.000  Hf
  Hf75     1.0000 0.86571  0.76573  0.13162  Biso   1.000  Hf
  Hf76     1.0000 0.86735  0.98038  0.38222  Biso   1.000  Hf
  Hf77     1.0000 0.53580  0.68529  0.19778  Biso   1.000  Hf
  Hf78     1.0000 0.53545  0.56585  0.44674  Biso   1.000  Hf
  Hf79     1.0000 0.96478  0.93417  0.19588  Biso   1.000  Hf
  Hf80     1.0000 0.96646  0.81414  0.44979  Biso   1.000  Hf
  Hf81     1.0000 0.77170  0.62069  0.25778  Biso   1.000  Hf
  Hf82     1.0000 0.76860  0.63329  0.50678  Biso   1.000  Hf
  Hf83     1.0000 0.73108  0.88183  0.50444  Biso   1.000  Hf
  Hf84     1.0000 0.73058  0.86660  0.25372  Biso   1.000  Hf
  Hf85     1.0000 0.63525  0.51602  0.62851  Biso   1.000  Hf
  Hf86     1.0000 0.63562  0.73498  0.88006  Biso   1.000  Hf
  Hf87     1.0000 0.86796  0.76700  0.63086  Biso   1.000  Hf
  Hf88     1.0000 0.86735  0.98105  0.88241  Biso   1.000  Hf
  Hf89     1.0000 0.53645  0.68107  0.70055  Biso   1.000  Hf
  Hf90     1.0000 0.54004  0.56768  0.94897  Biso   1.000  Hf
  Hf91     1.0000 0.96629  0.93437  0.69794  Biso   1.000  Hf
  Hf92     1.0000 0.96523  0.81221  0.94807  Biso   1.000  Hf
  Hf93     1.0000 0.77163  0.62104  0.75559  Biso   1.000  Hf
  Hf94     1.0000 0.77124  0.63194  0.00525  Biso   1.000  Hf
  Hf95     1.0000 0.73138  0.88165  0.00470  Biso   1.000  Hf
  Hf96     1.0000 0.73386  0.86714  0.75461  Biso   1.000  Hf
  As1      1.0000 0.02693  0.28892  0.03879  Biso   1.000  As
