data_image0
_cell_length_a       10.0076
_cell_length_b       10.1989
_cell_length_c       10.0076
_cell_angle_alpha    90
_cell_angle_beta     90
_cell_angle_gamma    90

_symmetry_space_group_name_H-M    "P 1"
_symmetry_int_tables_number       1

loop_
  _symmetry_equiv_pos_as_xyz
  'x, y, z'

loop_
  _atom_site_label
  _atom_site_occupancy
  _atom_site_fract_x
  _atom_site_fract_y
  _atom_site_fract_z
  _atom_site_thermal_displace_type
  _atom_site_B_iso_or_equiv
  _atom_site_type_symbol
  As1      1.0000 0.12491  0.00005  0.12491  Biso   1.000  As
  Hf1      1.0000 0.12759  0.25197  0.37508  Biso   1.000  Hf
  Hf2      1.0000 0.37508  0.25197  0.12759  Biso   1.000  Hf
  Hf3      1.0000 0.37398  0.00302  0.37398  Biso   1.000  Hf
  Hf4      1.0000 0.98341  0.15395  0.98341  Biso   1.000  Hf
  Hf5      1.0000 0.01076  0.09786  0.23905  Biso   1.000  Hf
  Hf6      1.0000 0.00076  0.34928  0.24905  Biso   1.000  Hf
  Hf7      1.0000 0.99967  0.40074  0.99968  Biso   1.000  Hf
  Hf8      1.0000 0.26641  0.15395  0.26641  Biso   1.000  Hf
  Hf9      1.0000 0.23905  0.09786  0.01076  Biso   1.000  Hf
  Hf10     1.0000 0.24905  0.34928  0.00077  Biso   1.000  Hf
  Hf11     1.0000 0.25014  0.40074  0.25014  Biso   1.000  Hf
  Hf12     1.0000 0.12491  0.00005  0.62491  Biso   1.000  Hf
  Hf13     1.0000 0.12222  0.25197  0.87474  Biso   1.000  Hf
  Hf14     1.0000 0.37434  0.24838  0.62687  Biso   1.000  Hf
  Hf15     1.0000 0.37398  0.99709  0.87584  Biso   1.000  Hf
  Hf16     1.0000 0.99402  0.14661  0.48775  Biso   1.000  Hf
  Hf17     1.0000 0.00102  0.10393  0.74123  Biso   1.000  Hf
  Hf18     1.0000 0.99811  0.35365  0.74907  Biso   1.000  Hf
  Hf19     1.0000 0.00154  0.39677  0.49952  Biso   1.000  Hf
  Hf20     1.0000 0.25580  0.14661  0.76206  Biso   1.000  Hf
  Hf21     1.0000 0.24880  0.10393  0.50859  Biso   1.000  Hf
  Hf22     1.0000 0.25170  0.35365  0.50074  Biso   1.000  Hf
  Hf23     1.0000 0.24827  0.39677  0.75030  Biso   1.000  Hf
  Hf24     1.0000 0.12491  0.50005  0.12491  Biso   1.000  Hf
  Hf25     1.0000 0.12222  0.74813  0.37508  Biso   1.000  Hf
  Hf26     1.0000 0.37508  0.74813  0.12222  Biso   1.000  Hf
  Hf27     1.0000 0.37658  0.50084  0.37658  Biso   1.000  Hf
  Hf28     1.0000 0.00076  0.65083  0.00076  Biso   1.000  Hf
  Hf29     1.0000 0.99967  0.59937  0.25014  Biso   1.000  Hf
  Hf30     1.0000 0.98341  0.84616  0.26641  Biso   1.000  Hf
  Hf31     1.0000 0.01076  0.90225  0.01076  Biso   1.000  Hf
  Hf32     1.0000 0.24905  0.65083  0.24905  Biso   1.000  Hf
  Hf33     1.0000 0.25014  0.59937  0.99968  Biso   1.000  Hf
  Hf34     1.0000 0.26641  0.84616  0.98341  Biso   1.000  Hf
  Hf35     1.0000 0.23905  0.90225  0.23905  Biso   1.000  Hf
  Hf36     1.0000 0.12491  0.50006  0.62491  Biso   1.000  Hf
  Hf37     1.0000 0.12759  0.74813  0.87474  Biso   1.000  Hf
  Hf38     1.0000 0.37434  0.75173  0.62295  Biso   1.000  Hf
  Hf39     1.0000 0.37658  0.49927  0.87323  Biso   1.000  Hf
  Hf40     1.0000 0.99811  0.64646  0.50074  Biso   1.000  Hf
  Hf41     1.0000 0.00154  0.60334  0.75030  Biso   1.000  Hf
  Hf42     1.0000 0.99402  0.85350  0.76206  Biso   1.000  Hf
  Hf43     1.0000 0.00102  0.89618  0.50859  Biso   1.000  Hf
  Hf44     1.0000 0.25170  0.64646  0.74907  Biso   1.000  Hf
  Hf45     1.0000 0.24827  0.60334  0.49952  Biso   1.000  Hf
  Hf46     1.0000 0.25580  0.85350  0.48775  Biso   1.000  Hf
  Hf47     1.0000 0.24880  0.89618  0.74123  Biso   1.000  Hf
  Hf48     1.0000 0.62491  0.00005  0.12491  Biso   1.000  Hf
  Hf49     1.0000 0.62687  0.24838  0.37433  Biso   1.000  Hf
  Hf50     1.0000 0.87473  0.25197  0.12222  Biso   1.000  Hf
  Hf51     1.0000 0.87584  0.99709  0.37398  Biso   1.000  Hf
  Hf52     1.0000 0.48775  0.14661  0.99402  Biso   1.000  Hf
  Hf53     1.0000 0.50859  0.10393  0.24880  Biso   1.000  Hf
  Hf54     1.0000 0.50074  0.35365  0.25170  Biso   1.000  Hf
  Hf55     1.0000 0.49952  0.39677  0.00155  Biso   1.000  Hf
  Hf56     1.0000 0.76206  0.14661  0.25580  Biso   1.000  Hf
  Hf57     1.0000 0.74123  0.10393  0.00101  Biso   1.000  Hf
  Hf58     1.0000 0.74907  0.35365  0.99811  Biso   1.000  Hf
  Hf59     1.0000 0.75030  0.39677  0.24827  Biso   1.000  Hf
  Hf60     1.0000 0.62491  0.00005  0.62491  Biso   1.000  Hf
  Hf61     1.0000 0.62295  0.24838  0.87548  Biso   1.000  Hf
  Hf62     1.0000 0.87548  0.24838  0.62295  Biso   1.000  Hf
  Hf63     1.0000 0.87584  0.00302  0.87584  Biso   1.000  Hf
  Hf64     1.0000 0.49535  0.14775  0.49535  Biso   1.000  Hf
  Hf65     1.0000 0.50235  0.10238  0.74747  Biso   1.000  Hf
  Hf66     1.0000 0.49787  0.35278  0.75194  Biso   1.000  Hf
  Hf67     1.0000 0.50126  0.39683  0.50126  Biso   1.000  Hf
  Hf68     1.0000 0.75447  0.14775  0.75447  Biso   1.000  Hf
  Hf69     1.0000 0.74746  0.10238  0.50235  Biso   1.000  Hf
  Hf70     1.0000 0.75194  0.35278  0.49787  Biso   1.000  Hf
  Hf71     1.0000 0.74856  0.39683  0.74856  Biso   1.000  Hf
  Hf72     1.0000 0.62491  0.50005  0.12491  Biso   1.000  Hf
  Hf73     1.0000 0.62295  0.75173  0.37433  Biso   1.000  Hf
  Hf74     1.0000 0.87473  0.74813  0.12759  Biso   1.000  Hf
  Hf75     1.0000 0.87324  0.49927  0.37658  Biso   1.000  Hf
  Hf76     1.0000 0.50074  0.64646  0.99811  Biso   1.000  Hf
  Hf77     1.0000 0.49952  0.60334  0.24827  Biso   1.000  Hf
  Hf78     1.0000 0.48775  0.85350  0.25580  Biso   1.000  Hf
  Hf79     1.0000 0.50859  0.89618  0.00101  Biso   1.000  Hf
  Hf80     1.0000 0.74908  0.64646  0.25171  Biso   1.000  Hf
  Hf81     1.0000 0.75030  0.60334  0.00154  Biso   1.000  Hf
  Hf82     1.0000 0.76206  0.85350  0.99402  Biso   1.000  Hf
  Hf83     1.0000 0.74123  0.89618  0.24880  Biso   1.000  Hf
  Hf84     1.0000 0.62491  0.50005  0.62491  Biso   1.000  Hf
  Hf85     1.0000 0.62686  0.75173  0.87548  Biso   1.000  Hf
  Hf86     1.0000 0.87548  0.75173  0.62687  Biso   1.000  Hf
  Hf87     1.0000 0.87324  0.50084  0.87323  Biso   1.000  Hf
  Hf88     1.0000 0.49787  0.64733  0.49787  Biso   1.000  Hf
  Hf89     1.0000 0.50126  0.60328  0.74856  Biso   1.000  Hf
  Hf90     1.0000 0.49535  0.85236  0.75447  Biso   1.000  Hf
  Hf91     1.0000 0.50235  0.89772  0.50235  Biso   1.000  Hf
  Hf92     1.0000 0.75194  0.64733  0.75195  Biso   1.000  Hf
  Hf93     1.0000 0.74856  0.60328  0.50126  Biso   1.000  Hf
  Hf94     1.0000 0.75447  0.85236  0.49535  Biso   1.000  Hf
  Hf95     1.0000 0.74746  0.89772  0.74747  Biso   1.000  Hf
