data_image0
_cell_length_a       10.229
_cell_length_b       10.3363
_cell_length_c       5.26666
_cell_angle_alpha    90.3365
_cell_angle_beta     79.6446
_cell_angle_gamma    89.8035

_symmetry_space_group_name_H-M    "P 1"
_symmetry_int_tables_number       1

loop_
  _symmetry_equiv_pos_as_xyz
  'x, y, z'

loop_
  _atom_site_label
  _atom_site_occupancy
  _atom_site_fract_x
  _atom_site_fract_y
  _atom_site_fract_z
  _atom_site_thermal_displace_type
  _atom_site_B_iso_or_equiv
  _atom_site_type_symbol
  Hf1      1.0000 0.13116  0.01973  0.28956  Biso   1.000  Hf
  Hf2      1.0000 0.13479  0.22856  0.78301  Biso   1.000  Hf
  Hf3      1.0000 0.35698  0.27918  0.19515  Biso   1.000  Hf
  Hf4      1.0000 0.35971  0.48036  0.70505  Biso   1.000  Hf
  O1       1.0000 0.03246  0.16741  0.15313  Biso   1.000  O
  O2       1.0000 0.02688  0.08288  0.65680  Biso   1.000  O
  O3       1.0000 0.46281  0.42458  0.34565  Biso   1.000  O
  O4       1.0000 0.48760  0.37591  0.89375  Biso   1.000  O
  O5       1.0000 0.25874  0.12993  0.46380  Biso   1.000  O
  O6       1.0000 0.26507  0.11301  0.97724  Biso   1.000  O
  O7       1.0000 0.22120  0.37921  0.00949  Biso   1.000  O
  O8       1.0000 0.21512  0.37721  0.50761  Biso   1.000  O
  Hf5      1.0000 0.13751  0.52347  0.29053  Biso   1.000  Hf
  Hf6      1.0000 0.13537  0.72848  0.79551  Biso   1.000  Hf
  Hf7      1.0000 0.35880  0.76948  0.21231  Biso   1.000  Hf
  Hf8      1.0000 0.35884  0.96742  0.71563  Biso   1.000  Hf
  O9       1.0000 0.03004  0.66686  0.15510  Biso   1.000  O
  O10      1.0000 0.03226  0.58648  0.65376  Biso   1.000  O
  O11      1.0000 0.46184  0.91898  0.34434  Biso   1.000  O
  O12      1.0000 0.45905  0.82526  0.84679  Biso   1.000  O
  O13      1.0000 0.27341  0.62975  0.48322  Biso   1.000  O
  O14      1.0000 0.27225  0.62121  0.98412  Biso   1.000  O
  O15      1.0000 0.22082  0.87417  0.02561  Biso   1.000  O
  O16      1.0000 0.22165  0.87026  0.52470  Biso   1.000  O
  Hf9      1.0000 0.63707  0.01889  0.29664  Biso   1.000  Hf
  Hf10     1.0000 0.65537  0.23546  0.81545  Biso   1.000  Hf
  Hf11     1.0000 0.86407  0.27302  0.21944  Biso   1.000  Hf
  Hf12     1.0000 0.86309  0.48124  0.70966  Biso   1.000  Hf
  O17      1.0000 0.53051  0.16590  0.14883  Biso   1.000  O
  O18      1.0000 0.55488  0.05021  0.69130  Biso   1.000  O
  O19      1.0000 0.96566  0.41959  0.34355  Biso   1.000  O
  O20      1.0000 0.96310  0.33325  0.84268  Biso   1.000  O
  O21      1.0000 0.77454  0.13230  0.48850  Biso   1.000  O
  O22      1.0000 0.77850  0.12051  0.99421  Biso   1.000  O
  O23      1.0000 0.72953  0.37885  0.03424  Biso   1.000  O
  O24      1.0000 0.72651  0.37475  0.53099  Biso   1.000  O
  Hf13     1.0000 0.63607  0.52499  0.29417  Biso   1.000  Hf
  Hf14     1.0000 0.63674  0.72780  0.79078  Biso   1.000  Hf
  Hf15     1.0000 0.85819  0.77074  0.20771  Biso   1.000  Hf
  Hf16     1.0000 0.85745  0.97736  0.71017  Biso   1.000  Hf
  O25      1.0000 0.53357  0.66877  0.15475  Biso   1.000  O
  O26      1.0000 0.53055  0.59228  0.64525  Biso   1.000  O
  O27      1.0000 0.95971  0.91593  0.34544  Biso   1.000  O
  O28      1.0000 0.96257  0.83393  0.84491  Biso   1.000  O
  O29      1.0000 0.77480  0.62858  0.48009  Biso   1.000  O
  O30      1.0000 0.77257  0.62165  0.97940  Biso   1.000  O
  O31      1.0000 0.72080  0.87936  0.02256  Biso   1.000  O
  O32      1.0000 0.72306  0.86840  0.51735  Biso   1.000  O
  Au1      1.0000 0.43806  0.21640  0.63003  Biso   1.000  Au
