data_image0
_cell_length_a       4.97147
_cell_length_b       10.381
_cell_length_c       10.0327
_cell_angle_alpha    90.1239
_cell_angle_beta     89.0156
_cell_angle_gamma    89.9189

_symmetry_space_group_name_H-M    "P 1"
_symmetry_int_tables_number       1

loop_
  _symmetry_equiv_pos_as_xyz
  'x, y, z'

loop_
  _atom_site_label
  _atom_site_occupancy
  _atom_site_fract_x
  _atom_site_fract_y
  _atom_site_fract_z
  _atom_site_thermal_displace_type
  _atom_site_B_iso_or_equiv
  _atom_site_type_symbol
  Au1      1.0000 0.24325  0.02553  0.10524  Biso   1.000  Au
  Hf1      1.0000 0.27785  0.22931  0.37758  Biso   1.000  Hf
  Hf2      1.0000 0.72691  0.26803  0.12901  Biso   1.000  Hf
  Hf3      1.0000 0.73543  0.48311  0.37729  Biso   1.000  Hf
  Hf4      1.0000 0.08599  0.18382  0.18917  Biso   1.000  Hf
  Hf5      1.0000 0.07635  0.06548  0.44620  Biso   1.000  Hf
  Hf6      1.0000 0.93040  0.42952  0.19563  Biso   1.000  Hf
  Hf7      1.0000 0.93016  0.31523  0.44241  Biso   1.000  Hf
  Hf8      1.0000 0.57332  0.12915  0.25870  Biso   1.000  Hf
  Hf9      1.0000 0.54169  0.13085  0.50411  Biso   1.000  Hf
  Hf10     1.0000 0.46103  0.38135  0.50076  Biso   1.000  Hf
  Hf11     1.0000 0.45440  0.37036  0.25144  Biso   1.000  Hf
  Hf12     1.0000 0.26347  0.01730  0.62909  Biso   1.000  Hf
  Hf13     1.0000 0.26610  0.23852  0.87231  Biso   1.000  Hf
  Hf14     1.0000 0.73277  0.26691  0.62412  Biso   1.000  Hf
  Hf15     1.0000 0.72917  0.48437  0.87565  Biso   1.000  Hf
  Hf16     1.0000 0.07975  0.19059  0.68842  Biso   1.000  Hf
  Hf17     1.0000 0.06992  0.06515  0.90665  Biso   1.000  Hf
  Hf18     1.0000 0.92645  0.43493  0.69518  Biso   1.000  Hf
  Hf19     1.0000 0.91890  0.31282  0.94275  Biso   1.000  Hf
  Hf20     1.0000 0.54430  0.12061  0.75125  Biso   1.000  Hf
  Hf21     1.0000 0.52984  0.12810  0.00305  Biso   1.000  Hf
  Hf22     1.0000 0.45666  0.38110  0.00109  Biso   1.000  Hf
  Hf23     1.0000 0.45733  0.37016  0.74955  Biso   1.000  Hf
  Hf24     1.0000 0.27110  0.51640  0.12967  Biso   1.000  Hf
  Hf25     1.0000 0.27496  0.73553  0.37706  Biso   1.000  Hf
  Hf26     1.0000 0.73829  0.76362  0.12721  Biso   1.000  Hf
  Hf27     1.0000 0.73534  0.98451  0.37650  Biso   1.000  Hf
  Hf28     1.0000 0.07767  0.68376  0.19726  Biso   1.000  Hf
  Hf29     1.0000 0.07440  0.56523  0.44573  Biso   1.000  Hf
  Hf30     1.0000 0.94145  0.93377  0.19253  Biso   1.000  Hf
  Hf31     1.0000 0.93456  0.81613  0.44804  Biso   1.000  Hf
  Hf32     1.0000 0.54670  0.61315  0.24959  Biso   1.000  Hf
  Hf33     1.0000 0.54184  0.63272  0.50031  Biso   1.000  Hf
  Hf34     1.0000 0.45921  0.88329  0.50465  Biso   1.000  Hf
  Hf35     1.0000 0.50051  0.85790  0.26017  Biso   1.000  Hf
  Hf36     1.0000 0.26680  0.51772  0.62541  Biso   1.000  Hf
  Hf37     1.0000 0.25892  0.73103  0.87857  Biso   1.000  Hf
  Hf38     1.0000 0.73096  0.76659  0.62547  Biso   1.000  Hf
  Hf39     1.0000 0.71446  0.97965  0.87319  Biso   1.000  Hf
  Hf40     1.0000 0.06742  0.68377  0.69810  Biso   1.000  Hf
  Hf41     1.0000 0.06598  0.56462  0.94856  Biso   1.000  Hf
  Hf42     1.0000 0.91550  0.93478  0.69015  Biso   1.000  Hf
  Hf43     1.0000 0.91262  0.81634  0.94180  Biso   1.000  Hf
  Hf44     1.0000 0.53556  0.61770  0.75111  Biso   1.000  Hf
  Hf45     1.0000 0.53666  0.63264  0.00049  Biso   1.000  Hf
  Hf46     1.0000 0.43980  0.88066  0.00857  Biso   1.000  Hf
  Hf47     1.0000 0.45050  0.86722  0.75398  Biso   1.000  Hf
