data_image0
_cell_length_a       10.078
_cell_length_b       10.2968
_cell_length_c       10.078
_cell_angle_alpha    90.0001
_cell_angle_beta     90
_cell_angle_gamma    90.0001

_symmetry_space_group_name_H-M    "P 1"
_symmetry_int_tables_number       1

loop_
  _symmetry_equiv_pos_as_xyz
  'x, y, z'

loop_
  _atom_site_label
  _atom_site_occupancy
  _atom_site_fract_x
  _atom_site_fract_y
  _atom_site_fract_z
  _atom_site_thermal_displace_type
  _atom_site_B_iso_or_equiv
  _atom_site_type_symbol
  Hf1      1.0000 0.12491  0.97843  0.12491  Biso   1.000  Hf
  Hf2      1.0000 0.12491  0.25005  0.38949  Biso   1.000  Hf
  Hf3      1.0000 0.38949  0.25005  0.12491  Biso   1.000  Hf
  Hf4      1.0000 0.37699  0.00652  0.37699  Biso   1.000  Hf
  Hf5      1.0000 0.96902  0.16390  0.96902  Biso   1.000  Hf
  Hf6      1.0000 0.00192  0.08272  0.24790  Biso   1.000  Hf
  Hf7      1.0000 0.96902  0.33621  0.28080  Biso   1.000  Hf
  Hf8      1.0000 0.00191  0.41738  0.00193  Biso   1.000  Hf
  Hf9      1.0000 0.28080  0.16390  0.28080  Biso   1.000  Hf
  Hf10     1.0000 0.24791  0.08273  0.00194  Biso   1.000  Hf
  Hf11     1.0000 0.28080  0.33621  0.96902  Biso   1.000  Hf
  Hf12     1.0000 0.24790  0.41738  0.24789  Biso   1.000  Hf
  Hf13     1.0000 0.12491  0.99420  0.62491  Biso   1.000  Hf
  Hf14     1.0000 0.12491  0.25005  0.86033  Biso   1.000  Hf
  Hf15     1.0000 0.37479  0.25005  0.62491  Biso   1.000  Hf
  Hf16     1.0000 0.37664  0.00004  0.87318  Biso   1.000  Hf
  Hf17     1.0000 0.99554  0.14544  0.49825  Biso   1.000  Hf
  Hf18     1.0000 0.00182  0.10161  0.74128  Biso   1.000  Hf
  Hf19     1.0000 0.99554  0.35466  0.75157  Biso   1.000  Hf
  Hf20     1.0000 0.00182  0.39850  0.50854  Biso   1.000  Hf
  Hf21     1.0000 0.25427  0.14545  0.75157  Biso   1.000  Hf
  Hf22     1.0000 0.24800  0.10161  0.50855  Biso   1.000  Hf
  Hf23     1.0000 0.25427  0.35466  0.49824  Biso   1.000  Hf
  Hf24     1.0000 0.24800  0.39850  0.74127  Biso   1.000  Hf
  Hf25     1.0000 0.12491  0.52168  0.12491  Biso   1.000  Hf
  Hf26     1.0000 0.12491  0.75005  0.38034  Biso   1.000  Hf
  Hf27     1.0000 0.38035  0.75005  0.12491  Biso   1.000  Hf
  Hf28     1.0000 0.37664  0.50007  0.37664  Biso   1.000  Hf
  Hf29     1.0000 0.00560  0.66054  0.00560  Biso   1.000  Hf
  Hf30     1.0000 0.99497  0.59584  0.25485  Biso   1.000  Hf
  Hf31     1.0000 0.00560  0.83957  0.24421  Biso   1.000  Hf
  Hf32     1.0000 0.99497  0.90427  0.99497  Biso   1.000  Hf
  Hf33     1.0000 0.24421  0.66054  0.24421  Biso   1.000  Hf
  Hf34     1.0000 0.25484  0.59584  0.99496  Biso   1.000  Hf
  Hf35     1.0000 0.24422  0.83957  0.00560  Biso   1.000  Hf
  Hf36     1.0000 0.25485  0.90427  0.25485  Biso   1.000  Hf
  Hf37     1.0000 0.12491  0.50591  0.62491  Biso   1.000  Hf
  Hf38     1.0000 0.12491  0.75005  0.86947  Biso   1.000  Hf
  Hf39     1.0000 0.37677  0.75005  0.62491  Biso   1.000  Hf
  Hf40     1.0000 0.37699  0.49359  0.87282  Biso   1.000  Hf
  Hf41     1.0000 0.99851  0.64802  0.50340  Biso   1.000  Hf
  Hf42     1.0000 0.00253  0.60342  0.75438  Biso   1.000  Hf
  Hf43     1.0000 0.99851  0.85208  0.74641  Biso   1.000  Hf
  Hf44     1.0000 0.00253  0.89669  0.49543  Biso   1.000  Hf
  Hf45     1.0000 0.25131  0.64802  0.74641  Biso   1.000  Hf
  Hf46     1.0000 0.24729  0.60342  0.49543  Biso   1.000  Hf
  Hf47     1.0000 0.25131  0.85208  0.50340  Biso   1.000  Hf
  Hf48     1.0000 0.24729  0.89669  0.75439  Biso   1.000  Hf
  Hf49     1.0000 0.62491  0.99420  0.12491  Biso   1.000  Hf
  Hf50     1.0000 0.62491  0.25005  0.37479  Biso   1.000  Hf
  Hf51     1.0000 0.86033  0.25006  0.12491  Biso   1.000  Hf
  Hf52     1.0000 0.87318  0.00004  0.37664  Biso   1.000  Hf
  Hf53     1.0000 0.49825  0.14544  0.99554  Biso   1.000  Hf
  Hf54     1.0000 0.50854  0.10161  0.24800  Biso   1.000  Hf
  Hf55     1.0000 0.49825  0.35466  0.25427  Biso   1.000  Hf
  Hf56     1.0000 0.50854  0.39850  0.00182  Biso   1.000  Hf
  Hf57     1.0000 0.75157  0.14545  0.25427  Biso   1.000  Hf
  Hf58     1.0000 0.74128  0.10161  0.00182  Biso   1.000  Hf
  Hf59     1.0000 0.75157  0.35466  0.99554  Biso   1.000  Hf
  Hf60     1.0000 0.74128  0.39850  0.24800  Biso   1.000  Hf
  Hf61     1.0000 0.62491  0.00038  0.62491  Biso   1.000  Hf
  Hf62     1.0000 0.62491  0.25005  0.87502  Biso   1.000  Hf
  Hf63     1.0000 0.87502  0.25006  0.62491  Biso   1.000  Hf
  Hf64     1.0000 0.87282  0.00652  0.87282  Biso   1.000  Hf
  Hf65     1.0000 0.49855  0.15023  0.49855  Biso   1.000  Hf
  Hf66     1.0000 0.50148  0.10113  0.74834  Biso   1.000  Hf
  Hf67     1.0000 0.49855  0.34987  0.75127  Biso   1.000  Hf
  Hf68     1.0000 0.50148  0.39898  0.50148  Biso   1.000  Hf
  Hf69     1.0000 0.75126  0.15023  0.75126  Biso   1.000  Hf
  Hf70     1.0000 0.74834  0.10113  0.50148  Biso   1.000  Hf
  Hf71     1.0000 0.75126  0.34987  0.49855  Biso   1.000  Hf
  Hf72     1.0000 0.74834  0.39898  0.74834  Biso   1.000  Hf
  Hf73     1.0000 0.62491  0.50590  0.12491  Biso   1.000  Hf
  Hf74     1.0000 0.62491  0.75005  0.37677  Biso   1.000  Hf
  Hf75     1.0000 0.86947  0.75005  0.12491  Biso   1.000  Hf
  Hf76     1.0000 0.87282  0.49359  0.37699  Biso   1.000  Hf
  Hf77     1.0000 0.50340  0.64802  0.99851  Biso   1.000  Hf
  Hf78     1.0000 0.49543  0.60342  0.24729  Biso   1.000  Hf
  Hf79     1.0000 0.50340  0.85209  0.25131  Biso   1.000  Hf
  Hf80     1.0000 0.49543  0.89669  0.00252  Biso   1.000  Hf
  Hf81     1.0000 0.74642  0.64802  0.25131  Biso   1.000  Hf
  Hf82     1.0000 0.75438  0.60342  0.00253  Biso   1.000  Hf
  Hf83     1.0000 0.74642  0.85209  0.99851  Biso   1.000  Hf
  Hf84     1.0000 0.75438  0.89669  0.24729  Biso   1.000  Hf
  Hf85     1.0000 0.62491  0.49972  0.62491  Biso   1.000  Hf
  Hf86     1.0000 0.62491  0.75005  0.87305  Biso   1.000  Hf
  Hf87     1.0000 0.87305  0.75005  0.62491  Biso   1.000  Hf
  Hf88     1.0000 0.87318  0.50007  0.87318  Biso   1.000  Hf
  Hf89     1.0000 0.49713  0.64894  0.49713  Biso   1.000  Hf
  Hf90     1.0000 0.50240  0.60124  0.74742  Biso   1.000  Hf
  Hf91     1.0000 0.49713  0.85117  0.75269  Biso   1.000  Hf
  Hf92     1.0000 0.50240  0.89887  0.50240  Biso   1.000  Hf
  Hf93     1.0000 0.75268  0.64894  0.75269  Biso   1.000  Hf
  Hf94     1.0000 0.74741  0.60124  0.50240  Biso   1.000  Hf
  Hf95     1.0000 0.75268  0.85117  0.49713  Biso   1.000  Hf
  Hf96     1.0000 0.74741  0.89887  0.74741  Biso   1.000  Hf
  Au1      1.0000 0.12491  0.25005  0.12491  Biso   1.000  Au
