data_image0
_cell_length_a       10.111
_cell_length_b       10.3064
_cell_length_c       5.26502
_cell_angle_alpha    89.6991
_cell_angle_beta     90.7565
_cell_angle_gamma    89.7639

_symmetry_space_group_name_H-M    "P 1"
_symmetry_int_tables_number       1

loop_
  _symmetry_equiv_pos_as_xyz
  'x, y, z'

loop_
  _atom_site_label
  _atom_site_occupancy
  _atom_site_fract_x
  _atom_site_fract_y
  _atom_site_fract_z
  _atom_site_thermal_displace_type
  _atom_site_B_iso_or_equiv
  _atom_site_type_symbol
  Hf1      1.0000 0.13777  0.01779  0.34757  Biso   1.000  Hf
  Hf2      1.0000 0.13748  0.22606  0.85328  Biso   1.000  Hf
  Hf3      1.0000 0.34705  0.26498  0.36927  Biso   1.000  Hf
  Hf4      1.0000 0.36296  0.48294  0.84591  Biso   1.000  Hf
  Hf5      1.0000 0.64058  0.01830  0.14962  Biso   1.000  Hf
  Hf6      1.0000 0.64147  0.22014  0.63366  Biso   1.000  Hf
  Hf7      1.0000 0.86445  0.27238  0.15574  Biso   1.000  Hf
  Hf8      1.0000 0.86843  0.48183  0.65964  Biso   1.000  Hf
  O1       1.0000 0.03329  0.16247  0.16835  Biso   1.000  O
  O2       1.0000 0.03375  0.08331  0.66632  Biso   1.000  O
  O3       1.0000 0.45008  0.44752  0.20632  Biso   1.000  O
  O4       1.0000 0.47090  0.33534  0.65608  Biso   1.000  O
  O5       1.0000 0.27053  0.12397  0.60282  Biso   1.000  O
  O6       1.0000 0.27519  0.12094  0.10054  Biso   1.000  O
  O7       1.0000 0.22331  0.37397  0.60216  Biso   1.000  O
  O8       1.0000 0.22566  0.37212  0.09784  Biso   1.000  O
  O9       1.0000 0.51351  0.12321  0.39075  Biso   1.000  O
  O10      1.0000 0.53244  0.07655  0.83545  Biso   1.000  O
  O11      1.0000 0.97207  0.41308  0.33817  Biso   1.000  O
  O12      1.0000 0.97351  0.33572  0.83755  Biso   1.000  O
  O13      1.0000 0.78292  0.12306  0.88954  Biso   1.000  O
  O14      1.0000 0.77860  0.12318  0.39592  Biso   1.000  O
  O15      1.0000 0.74402  0.38860  0.91836  Biso   1.000  O
  O16      1.0000 0.73269  0.37922  0.42581  Biso   1.000  O
  Hf9      1.0000 0.14085  0.52045  0.34190  Biso   1.000  Hf
  Hf10     1.0000 0.13988  0.72950  0.84344  Biso   1.000  Hf
  Hf11     1.0000 0.36376  0.77049  0.34506  Biso   1.000  Hf
  Hf12     1.0000 0.36227  0.97462  0.84932  Biso   1.000  Hf
  Hf13     1.0000 0.64319  0.53008  0.16182  Biso   1.000  Hf
  Hf14     1.0000 0.64125  0.73185  0.65708  Biso   1.000  Hf
  Hf15     1.0000 0.86443  0.77143  0.15780  Biso   1.000  Hf
  Hf16     1.0000 0.86425  0.97782  0.65644  Biso   1.000  Hf
  O17      1.0000 0.03417  0.66266  0.16286  Biso   1.000  O
  O18      1.0000 0.03815  0.58712  0.66192  Biso   1.000  O
  O19      1.0000 0.47052  0.90573  0.15656  Biso   1.000  O
  O20      1.0000 0.46789  0.83298  0.66590  Biso   1.000  O
  O21      1.0000 0.27914  0.62274  0.58953  Biso   1.000  O
  O22      1.0000 0.27499  0.62640  0.08584  Biso   1.000  O
  O23      1.0000 0.22632  0.87283  0.59362  Biso   1.000  O
  O24      1.0000 0.22456  0.87399  0.09523  Biso   1.000  O
  O25      1.0000 0.53927  0.67267  0.33374  Biso   1.000  O
  O26      1.0000 0.53638  0.58308  0.83305  Biso   1.000  O
  O27      1.0000 0.96999  0.91285  0.33534  Biso   1.000  O
  O28      1.0000 0.96957  0.83543  0.83755  Biso   1.000  O
  O29      1.0000 0.77752  0.63060  0.90925  Biso   1.000  O
  O30      1.0000 0.78030  0.62757  0.41023  Biso   1.000  O
  O31      1.0000 0.72729  0.87553  0.91147  Biso   1.000  O
  O32      1.0000 0.72809  0.87488  0.41216  Biso   1.000  O
  Au1      1.0000 0.56216  0.28031  0.09682  Biso   1.000  Au
