data_image0
_cell_length_a       9.94655
_cell_length_b       10.3729
_cell_length_c       10.0116
_cell_angle_alpha    90.0875
_cell_angle_beta     89.5239
_cell_angle_gamma    89.9206

_symmetry_space_group_name_H-M    "P 1"
_symmetry_int_tables_number       1

loop_
  _symmetry_equiv_pos_as_xyz
  'x, y, z'

loop_
  _atom_site_label
  _atom_site_occupancy
  _atom_site_fract_x
  _atom_site_fract_y
  _atom_site_fract_z
  _atom_site_thermal_displace_type
  _atom_site_B_iso_or_equiv
  _atom_site_type_symbol
  Au1      1.0000 0.11987  0.02624  0.10470  Biso   1.000  Au
  Hf1      1.0000 0.13950  0.23002  0.37848  Biso   1.000  Hf
  Hf2      1.0000 0.36689  0.26786  0.13019  Biso   1.000  Hf
  Hf3      1.0000 0.36594  0.48380  0.37784  Biso   1.000  Hf
  Hf4      1.0000 0.03813  0.18144  0.19164  Biso   1.000  Hf
  Hf5      1.0000 0.03897  0.06501  0.44662  Biso   1.000  Hf
  Hf6      1.0000 0.46416  0.43394  0.19590  Biso   1.000  Hf
  Hf7      1.0000 0.46424  0.31596  0.44498  Biso   1.000  Hf
  Hf8      1.0000 0.28584  0.12952  0.26000  Biso   1.000  Hf
  Hf9      1.0000 0.27091  0.13016  0.50655  Biso   1.000  Hf
  Hf10     1.0000 0.22968  0.38096  0.50115  Biso   1.000  Hf
  Hf11     1.0000 0.22718  0.36987  0.25127  Biso   1.000  Hf
  Hf12     1.0000 0.13398  0.01791  0.63315  Biso   1.000  Hf
  Hf13     1.0000 0.13420  0.23985  0.87282  Biso   1.000  Hf
  Hf14     1.0000 0.36721  0.26673  0.62722  Biso   1.000  Hf
  Hf15     1.0000 0.36607  0.48470  0.87677  Biso   1.000  Hf
  Hf16     1.0000 0.04003  0.19125  0.68771  Biso   1.000  Hf
  Hf17     1.0000 0.03827  0.06453  0.90067  Biso   1.000  Hf
  Hf18     1.0000 0.46367  0.43491  0.69517  Biso   1.000  Hf
  Hf19     1.0000 0.46008  0.31248  0.94186  Biso   1.000  Hf
  Hf20     1.0000 0.27502  0.12179  0.75490  Biso   1.000  Hf
  Hf21     1.0000 0.26232  0.13021  0.00587  Biso   1.000  Hf
  Hf22     1.0000 0.23015  0.38275  0.00088  Biso   1.000  Hf
  Hf23     1.0000 0.22920  0.37082  0.74974  Biso   1.000  Hf
  Hf24     1.0000 0.13453  0.51601  0.12783  Biso   1.000  Hf
  Hf25     1.0000 0.13592  0.73398  0.37764  Biso   1.000  Hf
  Hf26     1.0000 0.36589  0.76549  0.13026  Biso   1.000  Hf
  Hf27     1.0000 0.36282  0.98262  0.37646  Biso   1.000  Hf
  Hf28     1.0000 0.03730  0.68384  0.19461  Biso   1.000  Hf
  Hf29     1.0000 0.03682  0.56416  0.44533  Biso   1.000  Hf
  Hf30     1.0000 0.46818  0.93327  0.19610  Biso   1.000  Hf
  Hf31     1.0000 0.46696  0.81735  0.45068  Biso   1.000  Hf
  Hf32     1.0000 0.27112  0.61409  0.25067  Biso   1.000  Hf
  Hf33     1.0000 0.27164  0.63244  0.50159  Biso   1.000  Hf
  Hf34     1.0000 0.22754  0.88223  0.50701  Biso   1.000  Hf
  Hf35     1.0000 0.24252  0.85792  0.26163  Biso   1.000  Hf
  Hf36     1.0000 0.13376  0.51745  0.62617  Biso   1.000  Hf
  Hf37     1.0000 0.13192  0.73233  0.87812  Biso   1.000  Hf
  Hf38     1.0000 0.36515  0.76777  0.62864  Biso   1.000  Hf
  Hf39     1.0000 0.36500  0.98337  0.87960  Biso   1.000  Hf
  Hf40     1.0000 0.03592  0.68522  0.69518  Biso   1.000  Hf
  Hf41     1.0000 0.03459  0.56488  0.94493  Biso   1.000  Hf
  Hf42     1.0000 0.46242  0.93534  0.69753  Biso   1.000  Hf
  Hf43     1.0000 0.45748  0.81478  0.94383  Biso   1.000  Hf
  Hf44     1.0000 0.26933  0.61831  0.75153  Biso   1.000  Hf
  Hf45     1.0000 0.26913  0.63358  0.00140  Biso   1.000  Hf
  Hf46     1.0000 0.22278  0.88392  0.00936  Biso   1.000  Hf
  Hf47     1.0000 0.22831  0.86907  0.75644  Biso   1.000  Hf
  Hf48     1.0000 0.63569  0.01611  0.12711  Biso   1.000  Hf
  Hf49     1.0000 0.63393  0.23289  0.37546  Biso   1.000  Hf
  Hf50     1.0000 0.86282  0.26644  0.12538  Biso   1.000  Hf
  Hf51     1.0000 0.86748  0.48291  0.37573  Biso   1.000  Hf
  Hf52     1.0000 0.54219  0.18716  0.19023  Biso   1.000  Hf
  Hf53     1.0000 0.53658  0.06580  0.44264  Biso   1.000  Hf
  Hf54     1.0000 0.96383  0.43049  0.19336  Biso   1.000  Hf
  Hf55     1.0000 0.96377  0.31424  0.44034  Biso   1.000  Hf
  Hf56     1.0000 0.77269  0.11789  0.24950  Biso   1.000  Hf
  Hf57     1.0000 0.77102  0.13244  0.49810  Biso   1.000  Hf
  Hf58     1.0000 0.73004  0.38243  0.49990  Biso   1.000  Hf
  Hf59     1.0000 0.72903  0.36866  0.25041  Biso   1.000  Hf
  Hf60     1.0000 0.63157  0.01592  0.62268  Biso   1.000  Hf
  Hf61     1.0000 0.63351  0.23223  0.87554  Biso   1.000  Hf
  Hf62     1.0000 0.86514  0.26665  0.62303  Biso   1.000  Hf
  Hf63     1.0000 0.86459  0.48306  0.87533  Biso   1.000  Hf
  Hf64     1.0000 0.53786  0.18519  0.69309  Biso   1.000  Hf
  Hf65     1.0000 0.53543  0.06531  0.94548  Biso   1.000  Hf
  Hf66     1.0000 0.96278  0.43486  0.69380  Biso   1.000  Hf
  Hf67     1.0000 0.96271  0.31495  0.94444  Biso   1.000  Hf
  Hf68     1.0000 0.76909  0.11721  0.74660  Biso   1.000  Hf
  Hf69     1.0000 0.77395  0.12937  0.99739  Biso   1.000  Hf
  Hf70     1.0000 0.72775  0.38007  0.00056  Biso   1.000  Hf
  Hf71     1.0000 0.72890  0.36740  0.75015  Biso   1.000  Hf
  Hf72     1.0000 0.63495  0.51684  0.12838  Biso   1.000  Hf
  Hf73     1.0000 0.63513  0.73504  0.37628  Biso   1.000  Hf
  Hf74     1.0000 0.86832  0.76497  0.12375  Biso   1.000  Hf
  Hf75     1.0000 0.87065  0.98528  0.37634  Biso   1.000  Hf
  Hf76     1.0000 0.53764  0.68455  0.19656  Biso   1.000  Hf
  Hf77     1.0000 0.53687  0.56634  0.44450  Biso   1.000  Hf
  Hf78     1.0000 0.96629  0.93524  0.18962  Biso   1.000  Hf
  Hf79     1.0000 0.96316  0.81442  0.44126  Biso   1.000  Hf
  Hf80     1.0000 0.77243  0.61703  0.24950  Biso   1.000  Hf
  Hf81     1.0000 0.76988  0.63237  0.49928  Biso   1.000  Hf
  Hf82     1.0000 0.73094  0.88319  0.49821  Biso   1.000  Hf
  Hf83     1.0000 0.73657  0.86778  0.24899  Biso   1.000  Hf
  Hf84     1.0000 0.63364  0.51691  0.62578  Biso   1.000  Hf
  Hf85     1.0000 0.63137  0.73228  0.87701  Biso   1.000  Hf
  Hf86     1.0000 0.86596  0.76543  0.62338  Biso   1.000  Hf
  Hf87     1.0000 0.85867  0.97976  0.86959  Biso   1.000  Hf
  Hf88     1.0000 0.53459  0.68346  0.69677  Biso   1.000  Hf
  Hf89     1.0000 0.53552  0.56477  0.94725  Biso   1.000  Hf
  Hf90     1.0000 0.95844  0.93446  0.68563  Biso   1.000  Hf
  Hf91     1.0000 0.96052  0.81653  0.94124  Biso   1.000  Hf
  Hf92     1.0000 0.76922  0.61738  0.75018  Biso   1.000  Hf
  Hf93     1.0000 0.76995  0.63101  0.99979  Biso   1.000  Hf
  Hf94     1.0000 0.72451  0.87918  0.99919  Biso   1.000  Hf
  Hf95     1.0000 0.72650  0.86611  0.74816  Biso   1.000  Hf
