data_image0
_cell_length_a       9.99745
_cell_length_b       10.376
_cell_length_c       5.03145
_cell_angle_alpha    90.2956
_cell_angle_beta     89.5229
_cell_angle_gamma    90.7829

_symmetry_space_group_name_H-M    "P 1"
_symmetry_int_tables_number       1

loop_
  _symmetry_equiv_pos_as_xyz
  'x, y, z'

loop_
  _atom_site_label
  _atom_site_occupancy
  _atom_site_fract_x
  _atom_site_fract_y
  _atom_site_fract_z
  _atom_site_thermal_displace_type
  _atom_site_B_iso_or_equiv
  _atom_site_type_symbol
  Hf1      1.0000 0.14546  0.01554  0.25653  Biso   1.000  Hf
  Hf2      1.0000 0.13655  0.23132  0.81923  Biso   1.000  Hf
  Hf3      1.0000 0.36666  0.26140  0.24160  Biso   1.000  Hf
  Hf4      1.0000 0.37805  0.49123  0.74357  Biso   1.000  Hf
  Hf5      1.0000 0.02620  0.18401  0.45340  Biso   1.000  Hf
  Hf6      1.0000 0.03439  0.06740  0.92679  Biso   1.000  Hf
  Hf7      1.0000 0.45780  0.43103  0.38546  Biso   1.000  Hf
  Hf8      1.0000 0.46600  0.31557  0.87900  Biso   1.000  Hf
  Hf9      1.0000 0.26995  0.11623  0.51847  Biso   1.000  Hf
  Hf10     1.0000 0.29423  0.11606  0.99880  Biso   1.000  Hf
  Hf11     1.0000 0.24316  0.39240  0.97560  Biso   1.000  Hf
  Hf12     1.0000 0.19556  0.34917  0.46226  Biso   1.000  Hf
  Hf13     1.0000 0.12687  0.51711  0.22983  Biso   1.000  Hf
  Hf14     1.0000 0.13316  0.73343  0.74478  Biso   1.000  Hf
  Hf15     1.0000 0.36745  0.76174  0.24714  Biso   1.000  Hf
  Hf16     1.0000 0.37237  0.97777  0.74789  Biso   1.000  Hf
  Hf17     1.0000 0.03739  0.68587  0.37858  Biso   1.000  Hf
  Hf18     1.0000 0.03310  0.56778  0.87879  Biso   1.000  Hf
  Hf19     1.0000 0.46825  0.93006  0.38201  Biso   1.000  Hf
  Hf20     1.0000 0.46866  0.81372  0.89430  Biso   1.000  Hf
  Hf21     1.0000 0.26472  0.60723  0.48955  Biso   1.000  Hf
  Hf22     1.0000 0.26939  0.63563  0.98742  Biso   1.000  Hf
  Hf23     1.0000 0.23019  0.87965  0.99908  Biso   1.000  Hf
  Hf24     1.0000 0.23671  0.86219  0.49806  Biso   1.000  Hf
  Hf25     1.0000 0.63599  0.01776  0.24573  Biso   1.000  Hf
  Hf26     1.0000 0.63440  0.23167  0.74545  Biso   1.000  Hf
  Hf27     1.0000 0.86389  0.27284  0.23918  Biso   1.000  Hf
  Hf28     1.0000 0.86154  0.48511  0.74605  Biso   1.000  Hf
  Hf29     1.0000 0.53505  0.18156  0.38224  Biso   1.000  Hf
  Hf30     1.0000 0.54481  0.06142  0.87713  Biso   1.000  Hf
  Hf31     1.0000 0.95064  0.44538  0.37729  Biso   1.000  Hf
  Hf32     1.0000 0.95601  0.32111  0.86870  Biso   1.000  Hf
  Hf33     1.0000 0.77160  0.11884  0.49071  Biso   1.000  Hf
  Hf34     1.0000 0.77259  0.13535  0.99143  Biso   1.000  Hf
  Hf35     1.0000 0.72514  0.38291  0.99745  Biso   1.000  Hf
  Hf36     1.0000 0.72341  0.37048  0.49412  Biso   1.000  Hf
  Hf37     1.0000 0.63434  0.51707  0.25617  Biso   1.000  Hf
  Hf38     1.0000 0.63945  0.73726  0.75291  Biso   1.000  Hf
  Hf39     1.0000 0.87011  0.77004  0.24912  Biso   1.000  Hf
  Hf40     1.0000 0.86927  0.98786  0.74720  Biso   1.000  Hf
  Hf41     1.0000 0.53027  0.67811  0.40830  Biso   1.000  Hf
  Hf42     1.0000 0.53742  0.56922  0.90271  Biso   1.000  Hf
  Hf43     1.0000 0.97262  0.93412  0.40043  Biso   1.000  Hf
  Hf44     1.0000 0.96518  0.81806  0.88578  Biso   1.000  Hf
  Hf45     1.0000 0.76813  0.62216  0.50083  Biso   1.000  Hf
  Hf46     1.0000 0.76915  0.63402  0.00340  Biso   1.000  Hf
  Hf47     1.0000 0.73528  0.88480  0.99740  Biso   1.000  Hf
  Hf48     1.0000 0.73269  0.86987  0.49633  Biso   1.000  Hf
  B1       1.0000 0.11401  0.26059  0.29926  Biso   1.000  B 
