data_image0
_cell_length_a       10.18
_cell_length_b       5.08329
_cell_length_c       10.1804
_cell_angle_alpha    90.8455
_cell_angle_beta     82.9706
_cell_angle_gamma    90.1284

_symmetry_space_group_name_H-M    "P 1"
_symmetry_int_tables_number       1

loop_
  _symmetry_equiv_pos_as_xyz
  'x, y, z'

loop_
  _atom_site_label
  _atom_site_occupancy
  _atom_site_fract_x
  _atom_site_fract_y
  _atom_site_fract_z
  _atom_site_thermal_displace_type
  _atom_site_B_iso_or_equiv
  _atom_site_type_symbol
  Hf1      1.0000 0.12318  0.97686  0.11524  Biso   1.000  Hf
  Hf2      1.0000 0.12333  0.48690  0.36570  Biso   1.000  Hf
  Hf3      1.0000 0.34732  0.52020  0.11425  Biso   1.000  Hf
  Hf4      1.0000 0.37041  0.99303  0.36557  Biso   1.000  Hf
  Hf5      1.0000 0.03324  0.34301  0.04305  Biso   1.000  Hf
  Hf6      1.0000 0.03131  0.14081  0.29145  Biso   1.000  Hf
  Hf7      1.0000 0.99680  0.64301  0.22913  Biso   1.000  Hf
  Hf8      1.0000 0.98356  0.81070  0.98994  Biso   1.000  Hf
  Hf9      1.0000 0.30122  0.32781  0.29174  Biso   1.000  Hf
  Hf10     1.0000 0.28070  0.18168  0.02470  Biso   1.000  Hf
  Hf11     1.0000 0.24612  0.70855  0.97028  Biso   1.000  Hf
  Hf12     1.0000 0.24805  0.82239  0.24237  Biso   1.000  Hf
  Hf13     1.0000 0.10547  0.98283  0.60867  Biso   1.000  Hf
  Hf14     1.0000 0.11111  0.53023  0.85357  Biso   1.000  Hf
  Hf15     1.0000 0.35835  0.51235  0.60894  Biso   1.000  Hf
  Hf16     1.0000 0.35915  0.99177  0.85627  Biso   1.000  Hf
  Hf17     1.0000 0.02212  0.30995  0.53327  Biso   1.000  Hf
  Hf18     1.0000 0.02752  0.18784  0.78649  Biso   1.000  Hf
  Hf19     1.0000 0.98376  0.70338  0.73579  Biso   1.000  Hf
  Hf20     1.0000 0.98408  0.79050  0.48512  Biso   1.000  Hf
  Hf21     1.0000 0.27630  0.32358  0.77559  Biso   1.000  Hf
  Hf22     1.0000 0.26927  0.18364  0.52910  Biso   1.000  Hf
  Hf23     1.0000 0.23655  0.69979  0.49012  Biso   1.000  Hf
  Hf24     1.0000 0.23261  0.80610  0.73393  Biso   1.000  Hf
  Hf25     1.0000 0.60615  0.98843  0.10523  Biso   1.000  Hf
  Hf26     1.0000 0.60980  0.51052  0.35785  Biso   1.000  Hf
  Hf27     1.0000 0.84514  0.52438  0.10511  Biso   1.000  Hf
  Hf28     1.0000 0.85694  0.98960  0.36330  Biso   1.000  Hf
  Hf29     1.0000 0.52536  0.31884  0.02686  Biso   1.000  Hf
  Hf30     1.0000 0.53969  0.17245  0.27739  Biso   1.000  Hf
  Hf31     1.0000 0.49325  0.69623  0.23329  Biso   1.000  Hf
  Hf32     1.0000 0.48445  0.80366  0.98444  Biso   1.000  Hf
  Hf33     1.0000 0.78222  0.32448  0.27552  Biso   1.000  Hf
  Hf34     1.0000 0.77767  0.19033  0.02425  Biso   1.000  Hf
  Hf35     1.0000 0.73249  0.70770  0.98087  Biso   1.000  Hf
  Hf36     1.0000 0.74268  0.80556  0.23114  Biso   1.000  Hf
  Hf37     1.0000 0.60838  0.98455  0.60931  Biso   1.000  Hf
  Hf38     1.0000 0.60377  0.51515  0.86033  Biso   1.000  Hf
  Hf39     1.0000 0.85654  0.51753  0.60798  Biso   1.000  Hf
  Hf40     1.0000 0.85792  0.99069  0.85690  Biso   1.000  Hf
  Hf41     1.0000 0.52058  0.30817  0.52135  Biso   1.000  Hf
  Hf42     1.0000 0.52658  0.18622  0.77302  Biso   1.000  Hf
  Hf43     1.0000 0.48509  0.69844  0.73464  Biso   1.000  Hf
  Hf44     1.0000 0.48762  0.79505  0.48847  Biso   1.000  Hf
  Hf45     1.0000 0.77594  0.32090  0.77582  Biso   1.000  Hf
  Hf46     1.0000 0.77171  0.18707  0.52410  Biso   1.000  Hf
  Hf47     1.0000 0.73476  0.69794  0.48455  Biso   1.000  Hf
  Hf48     1.0000 0.73510  0.80530  0.73338  Biso   1.000  Hf
  B1       1.0000 0.09336  0.49116  0.14039  Biso   1.000  B 
