data_image0
_cell_length_a       10.1507
_cell_length_b       10.2316
_cell_length_c       10.4662
_cell_angle_alpha    90.0968
_cell_angle_beta     80.189
_cell_angle_gamma    90.0634

_symmetry_space_group_name_H-M    "P 1"
_symmetry_int_tables_number       1

loop_
  _symmetry_equiv_pos_as_xyz
  'x, y, z'

loop_
  _atom_site_label
  _atom_site_occupancy
  _atom_site_fract_x
  _atom_site_fract_y
  _atom_site_fract_z
  _atom_site_thermal_displace_type
  _atom_site_B_iso_or_equiv
  _atom_site_type_symbol
  B1       1.0000 0.02161  0.05936  0.17275  Biso   1.000  B
  Hf1      1.0000 0.14368  0.22660  0.39101  Biso   1.000  Hf
  Hf2      1.0000 0.35607  0.26317  0.10547  Biso   1.000  Hf
  Hf3      1.0000 0.35977  0.47695  0.35197  Biso   1.000  Hf
  O1       1.0000 0.03129  0.15518  0.08144  Biso   1.000  O
  O2       1.0000 0.03035  0.09037  0.30065  Biso   1.000  O
  O3       1.0000 0.46567  0.41368  0.17144  Biso   1.000  O
  O4       1.0000 0.46594  0.33275  0.42194  Biso   1.000  O
  O5       1.0000 0.28981  0.13696  0.25236  Biso   1.000  O
  O6       1.0000 0.27539  0.12003  0.49328  Biso   1.000  O
  O7       1.0000 0.22225  0.37724  0.00975  Biso   1.000  O
  O8       1.0000 0.22001  0.37253  0.25802  Biso   1.000  O
  Hf4      1.0000 0.13950  0.01959  0.64417  Biso   1.000  Hf
  Hf5      1.0000 0.14364  0.22426  0.89676  Biso   1.000  Hf
  Hf6      1.0000 0.36097  0.26971  0.60392  Biso   1.000  Hf
  Hf7      1.0000 0.36093  0.47733  0.85540  Biso   1.000  Hf
  O9       1.0000 0.03053  0.15508  0.56443  Biso   1.000  O
  O10      1.0000 0.03402  0.08568  0.82452  Biso   1.000  O
  O11      1.0000 0.46682  0.41566  0.67195  Biso   1.000  O
  O12      1.0000 0.46929  0.33639  0.92239  Biso   1.000  O
  O13      1.0000 0.27579  0.12670  0.73818  Biso   1.000  O
  O14      1.0000 0.28822  0.13149  0.97872  Biso   1.000  O
  O15      1.0000 0.22308  0.37604  0.50779  Biso   1.000  O
  O16      1.0000 0.22542  0.36827  0.75968  Biso   1.000  O
  Hf8      1.0000 0.14006  0.52107  0.14442  Biso   1.000  Hf
  Hf9      1.0000 0.14221  0.72810  0.39342  Biso   1.000  Hf
  Hf10     1.0000 0.35637  0.77632  0.10461  Biso   1.000  Hf
  Hf11     1.0000 0.35825  0.97882  0.35004  Biso   1.000  Hf
  O17      1.0000 0.03746  0.67324  0.08206  Biso   1.000  O
  O18      1.0000 0.03413  0.58369  0.32764  Biso   1.000  O
  O19      1.0000 0.47155  0.91532  0.17151  Biso   1.000  O
  O20      1.0000 0.46878  0.83404  0.42296  Biso   1.000  O
  O21      1.0000 0.27709  0.62378  0.23829  Biso   1.000  O
  O22      1.0000 0.27734  0.61980  0.48945  Biso   1.000  O
  O23      1.0000 0.23421  0.87058  0.99810  Biso   1.000  O
  O24      1.0000 0.23448  0.86152  0.26426  Biso   1.000  O
  Hf12     1.0000 0.14051  0.52107  0.64627  Biso   1.000  Hf
  Hf13     1.0000 0.14313  0.73242  0.89617  Biso   1.000  Hf
  Hf14     1.0000 0.36200  0.77160  0.60313  Biso   1.000  Hf
  Hf15     1.0000 0.35806  0.97886  0.85779  Biso   1.000  Hf
  O25      1.0000 0.03527  0.66500  0.57878  Biso   1.000  O
  O26      1.0000 0.03771  0.58056  0.82957  Biso   1.000  O
  O27      1.0000 0.46671  0.91445  0.67439  Biso   1.000  O
  O28      1.0000 0.47479  0.84009  0.92419  Biso   1.000  O
  O29      1.0000 0.27830  0.62831  0.73975  Biso   1.000  O
  O30      1.0000 0.27707  0.61823  0.99044  Biso   1.000  O
  O31      1.0000 0.22451  0.87753  0.50956  Biso   1.000  O
  O32      1.0000 0.22352  0.87141  0.75582  Biso   1.000  O
  Hf16     1.0000 0.64043  0.02238  0.14619  Biso   1.000  Hf
  Hf17     1.0000 0.63818  0.22872  0.39635  Biso   1.000  Hf
  Hf18     1.0000 0.85671  0.27539  0.10445  Biso   1.000  Hf
  Hf19     1.0000 0.86299  0.47825  0.35383  Biso   1.000  Hf
  O33      1.0000 0.53695  0.16730  0.07896  Biso   1.000  O
  O34      1.0000 0.53884  0.08002  0.33009  Biso   1.000  O
  O35      1.0000 0.96492  0.41690  0.17076  Biso   1.000  O
  O36      1.0000 0.96658  0.33185  0.41962  Biso   1.000  O
  O37      1.0000 0.77739  0.13103  0.24128  Biso   1.000  O
  O38      1.0000 0.77496  0.11911  0.49104  Biso   1.000  O
  O39      1.0000 0.72476  0.38083  0.00987  Biso   1.000  O
  O40      1.0000 0.72264  0.37220  0.26002  Biso   1.000  O
  Hf20     1.0000 0.63808  0.02018  0.64887  Biso   1.000  Hf
  Hf21     1.0000 0.63972  0.22900  0.89561  Biso   1.000  Hf
  Hf22     1.0000 0.86393  0.27005  0.60211  Biso   1.000  Hf
  Hf23     1.0000 0.86568  0.47741  0.85495  Biso   1.000  Hf
  O41      1.0000 0.53490  0.16629  0.57983  Biso   1.000  O
  O42      1.0000 0.53646  0.08328  0.82932  Biso   1.000  O
  O43      1.0000 0.96974  0.41137  0.67349  Biso   1.000  O
  O44      1.0000 0.96796  0.33137  0.92667  Biso   1.000  O
  O45      1.0000 0.77778  0.12838  0.73957  Biso   1.000  O
  O46      1.0000 0.77747  0.12261  0.99003  Biso   1.000  O
  O47      1.0000 0.72561  0.37704  0.51054  Biso   1.000  O
  O48      1.0000 0.72661  0.37116  0.75999  Biso   1.000  O
  Hf24     1.0000 0.63669  0.52267  0.14642  Biso   1.000  Hf
  Hf25     1.0000 0.63831  0.72684  0.39711  Biso   1.000  Hf
  Hf26     1.0000 0.86465  0.77184  0.10289  Biso   1.000  Hf
  Hf27     1.0000 0.85431  0.97583  0.36194  Biso   1.000  Hf
  O49      1.0000 0.53369  0.66655  0.07826  Biso   1.000  O
  O50      1.0000 0.53338  0.58245  0.32868  Biso   1.000  O
  O51      1.0000 0.96217  0.93980  0.16392  Biso   1.000  O
  O52      1.0000 0.96732  0.83590  0.41988  Biso   1.000  O
  O53      1.0000 0.77577  0.62955  0.24030  Biso   1.000  O
  O54      1.0000 0.77692  0.61994  0.49104  Biso   1.000  O
  O55      1.0000 0.72695  0.87940  0.01132  Biso   1.000  O
  O56      1.0000 0.73028  0.87093  0.26189  Biso   1.000  O
  Hf28     1.0000 0.64041  0.51973  0.64725  Biso   1.000  Hf
  Hf29     1.0000 0.64063  0.72897  0.89794  Biso   1.000  Hf
  Hf30     1.0000 0.86298  0.76903  0.60538  Biso   1.000  Hf
  Hf31     1.0000 0.86279  0.97895  0.85394  Biso   1.000  Hf
  O57      1.0000 0.53524  0.66460  0.57890  Biso   1.000  O
  O58      1.0000 0.53482  0.58444  0.82891  Biso   1.000  O
  O59      1.0000 0.96580  0.91464  0.67201  Biso   1.000  O
  O60      1.0000 0.96651  0.83225  0.92058  Biso   1.000  O
  O61      1.0000 0.77847  0.62717  0.74157  Biso   1.000  O
  O62      1.0000 0.77990  0.62311  0.99242  Biso   1.000  O
  O63      1.0000 0.72341  0.87609  0.51272  Biso   1.000  O
  O64      1.0000 0.72575  0.87032  0.76068  Biso   1.000  O
