data_image0
_cell_length_a       10.0506
_cell_length_b       10.1941
_cell_length_c       10.4637
_cell_angle_alpha    89.9741
_cell_angle_beta     90.2192
_cell_angle_gamma    90.0349

_symmetry_space_group_name_H-M    "P 1"
_symmetry_int_tables_number       1

loop_
  _symmetry_equiv_pos_as_xyz
  'x, y, z'

loop_
  _atom_site_label
  _atom_site_occupancy
  _atom_site_fract_x
  _atom_site_fract_y
  _atom_site_fract_z
  _atom_site_thermal_displace_type
  _atom_site_B_iso_or_equiv
  _atom_site_type_symbol
  B1       1.0000 0.02252  0.05904  0.17757  Biso   1.000  B
  Hf1      1.0000 0.14347  0.22689  0.41844  Biso   1.000  Hf
  Hf2      1.0000 0.35513  0.26266  0.17270  Biso   1.000  Hf
  Hf3      1.0000 0.36079  0.47810  0.42123  Biso   1.000  Hf
  Hf4      1.0000 0.64095  0.02182  0.07743  Biso   1.000  Hf
  Hf5      1.0000 0.63718  0.22961  0.32815  Biso   1.000  Hf
  Hf6      1.0000 0.85747  0.27505  0.07804  Biso   1.000  Hf
  Hf7      1.0000 0.86290  0.47935  0.32862  Biso   1.000  Hf
  O1       1.0000 0.03162  0.15393  0.08616  Biso   1.000  O
  O2       1.0000 0.02777  0.09305  0.30615  Biso   1.000  O
  O3       1.0000 0.46757  0.41113  0.08414  Biso   1.000  O
  O4       1.0000 0.47004  0.33872  0.33259  Biso   1.000  O
  O5       1.0000 0.28554  0.13201  0.30769  Biso   1.000  O
  O6       1.0000 0.29102  0.13681  0.03308  Biso   1.000  O
  O7       1.0000 0.22245  0.37463  0.29585  Biso   1.000  O
  O8       1.0000 0.22006  0.37556  0.04741  Biso   1.000  O
  O9       1.0000 0.53351  0.16394  0.16724  Biso   1.000  O
  O10      1.0000 0.53432  0.08562  0.41759  Biso   1.000  O
  O11      1.0000 0.96773  0.41375  0.16756  Biso   1.000  O
  O12      1.0000 0.96906  0.33530  0.41658  Biso   1.000  O
  O13      1.0000 0.77648  0.12167  0.45465  Biso   1.000  O
  O14      1.0000 0.77642  0.12779  0.20540  Biso   1.000  O
  O15      1.0000 0.72567  0.37250  0.45534  Biso   1.000  O
  O16      1.0000 0.72375  0.37737  0.20435  Biso   1.000  O
  Hf8      1.0000 0.13990  0.01932  0.67084  Biso   1.000  Hf
  Hf9      1.0000 0.14503  0.22409  0.92380  Biso   1.000  Hf
  Hf10     1.0000 0.36122  0.26972  0.67235  Biso   1.000  Hf
  Hf11     1.0000 0.36053  0.47657  0.92482  Biso   1.000  Hf
  Hf12     1.0000 0.63693  0.01934  0.57919  Biso   1.000  Hf
  Hf13     1.0000 0.64016  0.22844  0.82761  Biso   1.000  Hf
  Hf14     1.0000 0.86383  0.26933  0.57653  Biso   1.000  Hf
  Hf15     1.0000 0.86506  0.47727  0.82951  Biso   1.000  Hf
  O17      1.0000 0.02917  0.15271  0.56916  Biso   1.000  O
  O18      1.0000 0.03204  0.08840  0.82948  Biso   1.000  O
  O19      1.0000 0.46844  0.41316  0.58321  Biso   1.000  O
  O20      1.0000 0.46985  0.33574  0.83268  Biso   1.000  O
  O21      1.0000 0.27561  0.12164  0.79264  Biso   1.000  O
  O22      1.0000 0.27556  0.12514  0.54807  Biso   1.000  O
  O23      1.0000 0.22504  0.37082  0.79713  Biso   1.000  O
  O24      1.0000 0.22400  0.37389  0.54472  Biso   1.000  O
  O25      1.0000 0.53251  0.16339  0.66748  Biso   1.000  O
  O26      1.0000 0.53722  0.08408  0.91633  Biso   1.000  O
  O27      1.0000 0.97164  0.40836  0.67020  Biso   1.000  O
  O28      1.0000 0.97020  0.33370  0.92286  Biso   1.000  O
  O29      1.0000 0.77930  0.12525  0.95445  Biso   1.000  O
  O30      1.0000 0.77657  0.12500  0.70369  Biso   1.000  O
  O31      1.0000 0.72482  0.37500  0.95490  Biso   1.000  O
  O32      1.0000 0.72678  0.37519  0.70460  Biso   1.000  O
  Hf16     1.0000 0.14052  0.52072  0.17231  Biso   1.000  Hf
  Hf17     1.0000 0.14198  0.73039  0.41995  Biso   1.000  Hf
  Hf18     1.0000 0.35608  0.77656  0.17292  Biso   1.000  Hf
  Hf19     1.0000 0.35713  0.97956  0.41783  Biso   1.000  Hf
  Hf20     1.0000 0.63652  0.52219  0.07959  Biso   1.000  Hf
  Hf21     1.0000 0.63787  0.72755  0.32740  Biso   1.000  Hf
  Hf22     1.0000 0.86493  0.77167  0.07699  Biso   1.000  Hf
  Hf23     1.0000 0.85341  0.97690  0.33495  Biso   1.000  Hf
  O33      1.0000 0.03510  0.67019  0.08730  Biso   1.000  O
  O34      1.0000 0.03254  0.58665  0.33319  Biso   1.000  O
  O35      1.0000 0.47496  0.91284  0.08326  Biso   1.000  O
  O36      1.0000 0.47544  0.84313  0.32899  Biso   1.000  O
  O37      1.0000 0.27804  0.62077  0.29518  Biso   1.000  O
  O38      1.0000 0.27590  0.62069  0.04745  Biso   1.000  O
  O39      1.0000 0.23089  0.86575  0.30282  Biso   1.000  O
  O40      1.0000 0.23875  0.86576  0.03641  Biso   1.000  O
  O41      1.0000 0.53062  0.66362  0.16848  Biso   1.000  O
  O42      1.0000 0.53216  0.58660  0.41860  Biso   1.000  O
  O43      1.0000 0.96528  0.93840  0.15893  Biso   1.000  O
  O44      1.0000 0.96765  0.83804  0.41547  Biso   1.000  O
  O45      1.0000 0.77662  0.62251  0.45532  Biso   1.000  O
  O46      1.0000 0.77678  0.62696  0.20450  Biso   1.000  O
  O47      1.0000 0.72281  0.87152  0.45717  Biso   1.000  O
  O48      1.0000 0.73116  0.87577  0.20685  Biso   1.000  O
  Hf24     1.0000 0.14027  0.52078  0.67297  Biso   1.000  Hf
  Hf25     1.0000 0.14422  0.73130  0.92343  Biso   1.000  Hf
  Hf26     1.0000 0.36205  0.77102  0.67208  Biso   1.000  Hf
  Hf27     1.0000 0.36007  0.97875  0.92567  Biso   1.000  Hf
  Hf28     1.0000 0.63999  0.51954  0.57934  Biso   1.000  Hf
  Hf29     1.0000 0.63961  0.72895  0.82896  Biso   1.000  Hf
  Hf30     1.0000 0.86249  0.76864  0.57959  Biso   1.000  Hf
  Hf31     1.0000 0.86282  0.97902  0.82788  Biso   1.000  Hf
  O49      1.0000 0.03277  0.66265  0.58396  Biso   1.000  O
  O50      1.0000 0.03477  0.58316  0.83450  Biso   1.000  O
  O51      1.0000 0.46757  0.91263  0.58157  Biso   1.000  O
  O52      1.0000 0.47043  0.83652  0.83160  Biso   1.000  O
  O53      1.0000 0.27814  0.62228  0.79614  Biso   1.000  O
  O54      1.0000 0.27695  0.62554  0.54573  Biso   1.000  O
  O55      1.0000 0.22466  0.87273  0.79290  Biso   1.000  O
  O56      1.0000 0.22319  0.87597  0.54692  Biso   1.000  O
  O57      1.0000 0.53403  0.66282  0.66787  Biso   1.000  O
  O58      1.0000 0.53242  0.58529  0.91818  Biso   1.000  O
  O59      1.0000 0.96764  0.91199  0.66798  Biso   1.000  O
  O60      1.0000 0.96988  0.83515  0.91679  Biso   1.000  O
  O61      1.0000 0.77826  0.62529  0.95696  Biso   1.000  O
  O62      1.0000 0.77810  0.62449  0.70611  Biso   1.000  O
  O63      1.0000 0.72678  0.87436  0.95527  Biso   1.000  O
  O64      1.0000 0.72494  0.87456  0.70544  Biso   1.000  O
