data_image0
_cell_length_a       10.1926
_cell_length_b       5.08874
_cell_length_c       10.4826
_cell_angle_alpha    90.0684
_cell_angle_beta     80.1924
_cell_angle_gamma    90.1605

_symmetry_space_group_name_H-M    "P 1"
_symmetry_int_tables_number       1

loop_
  _symmetry_equiv_pos_as_xyz
  'x, y, z'

loop_
  _atom_site_label
  _atom_site_occupancy
  _atom_site_fract_x
  _atom_site_fract_y
  _atom_site_fract_z
  _atom_site_thermal_displace_type
  _atom_site_B_iso_or_equiv
  _atom_site_type_symbol
  B1       1.0000 0.02153  0.12119  0.17383  Biso   1.000  B
  Hf1      1.0000 0.14562  0.45232  0.38941  Biso   1.000  Hf
  Hf2      1.0000 0.35582  0.53830  0.10478  Biso   1.000  Hf
  Hf3      1.0000 0.35889  0.95500  0.34876  Biso   1.000  Hf
  O1       1.0000 0.03170  0.31541  0.08303  Biso   1.000  O
  O2       1.0000 0.02881  0.18447  0.30132  Biso   1.000  O
  O3       1.0000 0.47260  0.82310  0.17292  Biso   1.000  O
  O4       1.0000 0.46914  0.66920  0.42432  Biso   1.000  O
  O5       1.0000 0.28784  0.26175  0.24813  Biso   1.000  O
  O6       1.0000 0.27621  0.23821  0.49156  Biso   1.000  O
  O7       1.0000 0.23418  0.74046  0.99932  Biso   1.000  O
  O8       1.0000 0.23249  0.72730  0.26146  Biso   1.000  O
  Hf4      1.0000 0.14122  0.03768  0.64429  Biso   1.000  Hf
  Hf5      1.0000 0.14634  0.45422  0.89648  Biso   1.000  Hf
  Hf6      1.0000 0.36236  0.53949  0.60315  Biso   1.000  Hf
  Hf7      1.0000 0.36014  0.95427  0.85793  Biso   1.000  Hf
  O9       1.0000 0.03044  0.30309  0.56344  Biso   1.000  O
  O10      1.0000 0.03506  0.17387  0.82247  Biso   1.000  O
  O11      1.0000 0.46856  0.82381  0.67527  Biso   1.000  O
  O12      1.0000 0.47643  0.68128  0.92514  Biso   1.000  O
  O13      1.0000 0.27749  0.25116  0.73790  Biso   1.000  O
  O14      1.0000 0.28718  0.25461  0.98062  Biso   1.000  O
  O15      1.0000 0.22411  0.74919  0.50799  Biso   1.000  O
  O16      1.0000 0.22536  0.73686  0.75664  Biso   1.000  O
  Hf8      1.0000 0.63848  0.04745  0.14671  Biso   1.000  Hf
  Hf9      1.0000 0.63712  0.45414  0.39766  Biso   1.000  Hf
  Hf10     1.0000 0.86013  0.55282  0.10276  Biso   1.000  Hf
  Hf11     1.0000 0.85497  0.95153  0.36242  Biso   1.000  Hf
  O17      1.0000 0.53667  0.33222  0.07791  Biso   1.000  O
  O18      1.0000 0.53756  0.16207  0.32881  Biso   1.000  O
  O19      1.0000 0.96306  0.87954  0.16502  Biso   1.000  O
  O20      1.0000 0.96922  0.67279  0.41932  Biso   1.000  O
  O21      1.0000 0.77720  0.26334  0.24109  Biso   1.000  O
  O22      1.0000 0.77535  0.23704  0.49151  Biso   1.000  O
  O23      1.0000 0.72850  0.76248  0.01149  Biso   1.000  O
  O24      1.0000 0.72991  0.74462  0.26229  Biso   1.000  O
  Hf12     1.0000 0.63893  0.03758  0.65009  Biso   1.000  Hf
  Hf13     1.0000 0.64031  0.45782  0.89713  Biso   1.000  Hf
  Hf14     1.0000 0.86569  0.53485  0.60380  Biso   1.000  Hf
  Hf15     1.0000 0.86673  0.95617  0.85426  Biso   1.000  Hf
  O25      1.0000 0.53503  0.32545  0.57846  Biso   1.000  O
  O26      1.0000 0.53717  0.16913  0.82824  Biso   1.000  O
  O27      1.0000 0.97154  0.81321  0.67592  Biso   1.000  O
  O28      1.0000 0.97104  0.66767  0.92818  Biso   1.000  O
  O29      1.0000 0.77993  0.25255  0.74030  Biso   1.000  O
  O30      1.0000 0.78089  0.25010  0.99167  Biso   1.000  O
  O31      1.0000 0.72592  0.74870  0.51366  Biso   1.000  O
  O32      1.0000 0.72912  0.74050  0.76113  Biso   1.000  O
