data_image0
_cell_length_a       4.99351
_cell_length_b       10.4037
_cell_length_c       10.0464
_cell_angle_alpha    90.2766
_cell_angle_beta     89.349
_cell_angle_gamma    90.8261

_symmetry_space_group_name_H-M    "P 1"
_symmetry_int_tables_number       1

loop_
  _symmetry_equiv_pos_as_xyz
  'x, y, z'

loop_
  _atom_site_label
  _atom_site_occupancy
  _atom_site_fract_x
  _atom_site_fract_y
  _atom_site_fract_z
  _atom_site_thermal_displace_type
  _atom_site_B_iso_or_equiv
  _atom_site_type_symbol
  Hf1      1.0000 0.28377  0.01767  0.12034  Biso   1.000  Hf
  Hf2      1.0000 0.27130  0.22641  0.39675  Biso   1.000  Hf
  Hf3      1.0000 0.72296  0.26840  0.10623  Biso   1.000  Hf
  Hf4      1.0000 0.74842  0.48699  0.37905  Biso   1.000  Hf
  Hf5      1.0000 0.04291  0.18127  0.22004  Biso   1.000  Hf
  Hf6      1.0000 0.07613  0.06288  0.45449  Biso   1.000  Hf
  Hf7      1.0000 0.88830  0.43784  0.19506  Biso   1.000  Hf
  Hf8      1.0000 0.93353  0.31837  0.45008  Biso   1.000  Hf
  Hf9      1.0000 0.52966  0.11624  0.25701  Biso   1.000  Hf
  Hf10     1.0000 0.55522  0.13156  0.50748  Biso   1.000  Hf
  Hf11     1.0000 0.46301  0.38372  0.49246  Biso   1.000  Hf
  Hf12     1.0000 0.37530  0.34633  0.22667  Biso   1.000  Hf
  Hf13     1.0000 0.28208  0.01738  0.63297  Biso   1.000  Hf
  Hf14     1.0000 0.27125  0.23633  0.88744  Biso   1.000  Hf
  Hf15     1.0000 0.74296  0.26713  0.63437  Biso   1.000  Hf
  Hf16     1.0000 0.73358  0.49088  0.86618  Biso   1.000  Hf
  Hf17     1.0000 0.08101  0.18441  0.69360  Biso   1.000  Hf
  Hf18     1.0000 0.09640  0.06180  0.94160  Biso   1.000  Hf
  Hf19     1.0000 0.92175  0.44145  0.68532  Biso   1.000  Hf
  Hf20     1.0000 0.90262  0.31452  0.91454  Biso   1.000  Hf
  Hf21     1.0000 0.54604  0.11994  0.75587  Biso   1.000  Hf
  Hf22     1.0000 0.59085  0.11749  0.99633  Biso   1.000  Hf
  Hf23     1.0000 0.47718  0.39420  0.99313  Biso   1.000  Hf
  Hf24     1.0000 0.44922  0.37144  0.74665  Biso   1.000  Hf
  Hf25     1.0000 0.24934  0.51851  0.12139  Biso   1.000  Hf
  Hf26     1.0000 0.27527  0.73498  0.37568  Biso   1.000  Hf
  Hf27     1.0000 0.73402  0.76503  0.12579  Biso   1.000  Hf
  Hf28     1.0000 0.74019  0.98444  0.37403  Biso   1.000  Hf
  Hf29     1.0000 0.06443  0.68224  0.19793  Biso   1.000  Hf
  Hf30     1.0000 0.07470  0.56845  0.44665  Biso   1.000  Hf
  Hf31     1.0000 0.93914  0.93454  0.19389  Biso   1.000  Hf
  Hf32     1.0000 0.93223  0.81550  0.44197  Biso   1.000  Hf
  Hf33     1.0000 0.52508  0.60908  0.25112  Biso   1.000  Hf
  Hf34     1.0000 0.54368  0.63406  0.49872  Biso   1.000  Hf
  Hf35     1.0000 0.46625  0.88420  0.49991  Biso   1.000  Hf
  Hf36     1.0000 0.46953  0.86465  0.24921  Biso   1.000  Hf
  Hf37     1.0000 0.27439  0.51666  0.62444  Biso   1.000  Hf
  Hf38     1.0000 0.27253  0.73552  0.87538  Biso   1.000  Hf
  Hf39     1.0000 0.74148  0.76764  0.62325  Biso   1.000  Hf
  Hf40     1.0000 0.74602  0.97988  0.87442  Biso   1.000  Hf
  Hf41     1.0000 0.07324  0.68387  0.69553  Biso   1.000  Hf
  Hf42     1.0000 0.06947  0.56648  0.94476  Biso   1.000  Hf
  Hf43     1.0000 0.93934  0.93178  0.69465  Biso   1.000  Hf
  Hf44     1.0000 0.93369  0.81441  0.94681  Biso   1.000  Hf
  Hf45     1.0000 0.53927  0.62184  0.74735  Biso   1.000  Hf
  Hf46     1.0000 0.53417  0.63581  0.99963  Biso   1.000  Hf
  Hf47     1.0000 0.46481  0.87961  0.00034  Biso   1.000  Hf
  Hf48     1.0000 0.46900  0.86798  0.75005  Biso   1.000  Hf
  B1       1.0000 0.21386  0.25932  0.14018  Biso   1.000  B 
