data_image0
_cell_length_a       9.98774
_cell_length_b       10.1705
_cell_length_c       9.98773
_cell_angle_alpha    90
_cell_angle_beta     90
_cell_angle_gamma    90

_symmetry_space_group_name_H-M    "P 1"
_symmetry_int_tables_number       1

loop_
  _symmetry_equiv_pos_as_xyz
  'x, y, z'

loop_
  _atom_site_label
  _atom_site_occupancy
  _atom_site_fract_x
  _atom_site_fract_y
  _atom_site_fract_z
  _atom_site_thermal_displace_type
  _atom_site_B_iso_or_equiv
  _atom_site_type_symbol
  B1       1.0000 0.12491  0.00005  0.12491  Biso   1.000  B 
  Hf1      1.0000 0.13013  0.25282  0.37597  Biso   1.000  Hf
  Hf2      1.0000 0.37597  0.25282  0.13013  Biso   1.000  Hf
  Hf3      1.0000 0.36748  0.00184  0.36748  Biso   1.000  Hf
  Hf4      1.0000 0.97313  0.16158  0.97313  Biso   1.000  Hf
  Hf5      1.0000 0.03154  0.07807  0.21828  Biso   1.000  Hf
  Hf6      1.0000 0.00518  0.34154  0.24464  Biso   1.000  Hf
  Hf7      1.0000 0.99806  0.40568  0.99806  Biso   1.000  Hf
  Hf8      1.0000 0.27669  0.16158  0.27669  Biso   1.000  Hf
  Hf9      1.0000 0.21828  0.07806  0.03154  Biso   1.000  Hf
  Hf10     1.0000 0.24464  0.34154  0.00518  Biso   1.000  Hf
  Hf11     1.0000 0.25176  0.40568  0.25176  Biso   1.000  Hf
  Hf12     1.0000 0.12491  0.00005  0.62491  Biso   1.000  Hf
  Hf13     1.0000 0.11969  0.25282  0.87385  Biso   1.000  Hf
  Hf14     1.0000 0.37498  0.24556  0.62831  Biso   1.000  Hf
  Hf15     1.0000 0.36748  0.99827  0.88234  Biso   1.000  Hf
  Hf16     1.0000 0.99220  0.14492  0.47874  Biso   1.000  Hf
  Hf17     1.0000 0.00169  0.10587  0.73655  Biso   1.000  Hf
  Hf18     1.0000 0.99664  0.35530  0.74689  Biso   1.000  Hf
  Hf19     1.0000 0.00321  0.39516  0.49712  Biso   1.000  Hf
  Hf20     1.0000 0.25761  0.14492  0.77108  Biso   1.000  Hf
  Hf21     1.0000 0.24812  0.10587  0.51327  Biso   1.000  Hf
  Hf22     1.0000 0.25317  0.35530  0.50292  Biso   1.000  Hf
  Hf23     1.0000 0.24660  0.39516  0.75270  Biso   1.000  Hf
  Hf24     1.0000 0.12491  0.50005  0.12491  Biso   1.000  Hf
  Hf25     1.0000 0.11969  0.74729  0.37597  Biso   1.000  Hf
  Hf26     1.0000 0.37597  0.74729  0.11969  Biso   1.000  Hf
  Hf27     1.0000 0.37940  0.50090  0.37940  Biso   1.000  Hf
  Hf28     1.0000 0.00518  0.65857  0.00518  Biso   1.000  Hf
  Hf29     1.0000 0.99806  0.59443  0.25176  Biso   1.000  Hf
  Hf30     1.0000 0.97313  0.83853  0.27669  Biso   1.000  Hf
  Hf31     1.0000 0.03154  0.92204  0.03154  Biso   1.000  Hf
  Hf32     1.0000 0.24464  0.65857  0.24463  Biso   1.000  Hf
  Hf33     1.0000 0.25176  0.59443  0.99806  Biso   1.000  Hf
  Hf34     1.0000 0.27669  0.83853  0.97313  Biso   1.000  Hf
  Hf35     1.0000 0.21828  0.92204  0.21828  Biso   1.000  Hf
  Hf36     1.0000 0.12491  0.50005  0.62491  Biso   1.000  Hf
  Hf37     1.0000 0.13013  0.74729  0.87385  Biso   1.000  Hf
  Hf38     1.0000 0.37498  0.75455  0.62151  Biso   1.000  Hf
  Hf39     1.0000 0.37940  0.49921  0.87042  Biso   1.000  Hf
  Hf40     1.0000 0.99664  0.64481  0.50292  Biso   1.000  Hf
  Hf41     1.0000 0.00321  0.60495  0.75270  Biso   1.000  Hf
  Hf42     1.0000 0.99220  0.85519  0.77108  Biso   1.000  Hf
  Hf43     1.0000 0.00169  0.89424  0.51327  Biso   1.000  Hf
  Hf44     1.0000 0.25318  0.64481  0.74689  Biso   1.000  Hf
  Hf45     1.0000 0.24660  0.60495  0.49712  Biso   1.000  Hf
  Hf46     1.0000 0.25761  0.85519  0.47874  Biso   1.000  Hf
  Hf47     1.0000 0.24812  0.89424  0.73655  Biso   1.000  Hf
  Hf48     1.0000 0.62491  0.00005  0.12491  Biso   1.000  Hf
  Hf49     1.0000 0.62831  0.24556  0.37498  Biso   1.000  Hf
  Hf50     1.0000 0.87385  0.25282  0.11969  Biso   1.000  Hf
  Hf51     1.0000 0.88234  0.99827  0.36748  Biso   1.000  Hf
  Hf52     1.0000 0.47874  0.14492  0.99220  Biso   1.000  Hf
  Hf53     1.0000 0.51326  0.10586  0.24812  Biso   1.000  Hf
  Hf54     1.0000 0.50292  0.35530  0.25318  Biso   1.000  Hf
  Hf55     1.0000 0.49712  0.39516  0.00321  Biso   1.000  Hf
  Hf56     1.0000 0.77108  0.14492  0.25762  Biso   1.000  Hf
  Hf57     1.0000 0.73655  0.10587  0.00169  Biso   1.000  Hf
  Hf58     1.0000 0.74689  0.35530  0.99664  Biso   1.000  Hf
  Hf59     1.0000 0.75270  0.39516  0.24660  Biso   1.000  Hf
  Hf60     1.0000 0.62491  0.00005  0.62491  Biso   1.000  Hf
  Hf61     1.0000 0.62150  0.24556  0.87483  Biso   1.000  Hf
  Hf62     1.0000 0.87483  0.24556  0.62151  Biso   1.000  Hf
  Hf63     1.0000 0.88234  0.00184  0.88234  Biso   1.000  Hf
  Hf64     1.0000 0.49416  0.14634  0.49416  Biso   1.000  Hf
  Hf65     1.0000 0.50210  0.10300  0.74772  Biso   1.000  Hf
  Hf66     1.0000 0.49708  0.35422  0.75274  Biso   1.000  Hf
  Hf67     1.0000 0.50243  0.39444  0.50243  Biso   1.000  Hf
  Hf68     1.0000 0.75565  0.14634  0.75565  Biso   1.000  Hf
  Hf69     1.0000 0.74772  0.10300  0.50210  Biso   1.000  Hf
  Hf70     1.0000 0.75273  0.35422  0.49708  Biso   1.000  Hf
  Hf71     1.0000 0.74738  0.39444  0.74738  Biso   1.000  Hf
  Hf72     1.0000 0.62491  0.50005  0.12491  Biso   1.000  Hf
  Hf73     1.0000 0.62151  0.75455  0.37498  Biso   1.000  Hf
  Hf74     1.0000 0.87385  0.74729  0.13013  Biso   1.000  Hf
  Hf75     1.0000 0.87042  0.49921  0.37940  Biso   1.000  Hf
  Hf76     1.0000 0.50292  0.64480  0.99664  Biso   1.000  Hf
  Hf77     1.0000 0.49712  0.60495  0.24660  Biso   1.000  Hf
  Hf78     1.0000 0.47874  0.85519  0.25761  Biso   1.000  Hf
  Hf79     1.0000 0.51327  0.89424  0.00169  Biso   1.000  Hf
  Hf80     1.0000 0.74689  0.64480  0.25318  Biso   1.000  Hf
  Hf81     1.0000 0.75270  0.60495  0.00321  Biso   1.000  Hf
  Hf82     1.0000 0.77108  0.85519  0.99220  Biso   1.000  Hf
  Hf83     1.0000 0.73655  0.89424  0.24812  Biso   1.000  Hf
  Hf84     1.0000 0.62491  0.50005  0.62491  Biso   1.000  Hf
  Hf85     1.0000 0.62831  0.75455  0.87483  Biso   1.000  Hf
  Hf86     1.0000 0.87483  0.75455  0.62831  Biso   1.000  Hf
  Hf87     1.0000 0.87042  0.50090  0.87042  Biso   1.000  Hf
  Hf88     1.0000 0.49708  0.64588  0.49708  Biso   1.000  Hf
  Hf89     1.0000 0.50243  0.60567  0.74738  Biso   1.000  Hf
  Hf90     1.0000 0.49416  0.85377  0.75565  Biso   1.000  Hf
  Hf91     1.0000 0.50210  0.89711  0.50210  Biso   1.000  Hf
  Hf92     1.0000 0.75273  0.64588  0.75274  Biso   1.000  Hf
  Hf93     1.0000 0.74738  0.60567  0.50243  Biso   1.000  Hf
  Hf94     1.0000 0.75565  0.85377  0.49416  Biso   1.000  Hf
  Hf95     1.0000 0.74772  0.89711  0.74772  Biso   1.000  Hf
