data_image0
_cell_length_a       10.0089
_cell_length_b       10.3764
_cell_length_c       4.95053
_cell_angle_alpha    89.9118
_cell_angle_beta     89.7708
_cell_angle_gamma    90.3419

_symmetry_space_group_name_H-M    "P 1"
_symmetry_int_tables_number       1

loop_
  _symmetry_equiv_pos_as_xyz
  'x, y, z'

loop_
  _atom_site_label
  _atom_site_occupancy
  _atom_site_fract_x
  _atom_site_fract_y
  _atom_site_fract_z
  _atom_site_thermal_displace_type
  _atom_site_B_iso_or_equiv
  _atom_site_type_symbol
  B1       1.0000 0.02103  0.05337  0.23842  Biso   1.000  B 
  Hf1      1.0000 0.14153  0.22865  0.76248  Biso   1.000  Hf
  Hf2      1.0000 0.36618  0.26374  0.25795  Biso   1.000  Hf
  Hf3      1.0000 0.36810  0.48197  0.75502  Biso   1.000  Hf
  Hf4      1.0000 0.03095  0.16563  0.39277  Biso   1.000  Hf
  Hf5      1.0000 0.02858  0.06579  0.95979  Biso   1.000  Hf
  Hf6      1.0000 0.46263  0.43505  0.38484  Biso   1.000  Hf
  Hf7      1.0000 0.46581  0.31594  0.88553  Biso   1.000  Hf
  Hf8      1.0000 0.28321  0.12834  0.52214  Biso   1.000  Hf
  Hf9      1.0000 0.27826  0.13228  0.99951  Biso   1.000  Hf
  Hf10     1.0000 0.22975  0.37748  0.00411  Biso   1.000  Hf
  Hf11     1.0000 0.22601  0.36634  0.50523  Biso   1.000  Hf
  Hf12     1.0000 0.13772  0.51513  0.25463  Biso   1.000  Hf
  Hf13     1.0000 0.13819  0.73254  0.75797  Biso   1.000  Hf
  Hf14     1.0000 0.36661  0.76672  0.25467  Biso   1.000  Hf
  Hf15     1.0000 0.36229  0.98088  0.75715  Biso   1.000  Hf
  Hf16     1.0000 0.04040  0.68606  0.38112  Biso   1.000  Hf
  Hf17     1.0000 0.03755  0.56381  0.89019  Biso   1.000  Hf
  Hf18     1.0000 0.46907  0.93298  0.39661  Biso   1.000  Hf
  Hf19     1.0000 0.47280  0.81713  0.89833  Biso   1.000  Hf
  Hf20     1.0000 0.27147  0.61412  0.50314  Biso   1.000  Hf
  Hf21     1.0000 0.27514  0.62572  0.00359  Biso   1.000  Hf
  Hf22     1.0000 0.23575  0.87038  0.00417  Biso   1.000  Hf
  Hf23     1.0000 0.24144  0.85931  0.51938  Biso   1.000  Hf
  Hf24     1.0000 0.63216  0.01534  0.24603  Biso   1.000  Hf
  Hf25     1.0000 0.63189  0.23208  0.74817  Biso   1.000  Hf
  Hf26     1.0000 0.86002  0.27155  0.24658  Biso   1.000  Hf
  Hf27     1.0000 0.86896  0.48351  0.74845  Biso   1.000  Hf
  Hf28     1.0000 0.54259  0.18659  0.37656  Biso   1.000  Hf
  Hf29     1.0000 0.53906  0.06421  0.88221  Biso   1.000  Hf
  Hf30     1.0000 0.96646  0.42893  0.38617  Biso   1.000  Hf
  Hf31     1.0000 0.96590  0.31257  0.88325  Biso   1.000  Hf
  Hf32     1.0000 0.77145  0.11750  0.49299  Biso   1.000  Hf
  Hf33     1.0000 0.77178  0.13308  0.99232  Biso   1.000  Hf
  Hf34     1.0000 0.73226  0.38286  0.99834  Biso   1.000  Hf
  Hf35     1.0000 0.72878  0.36945  0.49836  Biso   1.000  Hf
  Hf36     1.0000 0.63345  0.51801  0.25109  Biso   1.000  Hf
  Hf37     1.0000 0.63615  0.73464  0.74647  Biso   1.000  Hf
  Hf38     1.0000 0.87276  0.76464  0.23930  Biso   1.000  Hf
  Hf39     1.0000 0.86407  0.98522  0.74928  Biso   1.000  Hf
  Hf40     1.0000 0.54094  0.68444  0.38687  Biso   1.000  Hf
  Hf41     1.0000 0.54061  0.56486  0.88231  Biso   1.000  Hf
  Hf42     1.0000 0.96997  0.94715  0.36453  Biso   1.000  Hf
  Hf43     1.0000 0.96408  0.81749  0.86692  Biso   1.000  Hf
  Hf44     1.0000 0.77590  0.61640  0.49279  Biso   1.000  Hf
  Hf45     1.0000 0.77295  0.63415  0.99507  Biso   1.000  Hf
  Hf46     1.0000 0.73411  0.88455  0.99377  Biso   1.000  Hf
  Hf47     1.0000 0.74044  0.86712  0.49233  Biso   1.000  Hf
