data_image0
_cell_length_a       5.08989
_cell_length_b       10.2793
_cell_length_c       10.4911
_cell_angle_alpha    90.556
_cell_angle_beta     79.7166
_cell_angle_gamma    89.763

_symmetry_space_group_name_H-M    "P 1"
_symmetry_int_tables_number       1

loop_
  _symmetry_equiv_pos_as_xyz
  'x, y, z'

loop_
  _atom_site_label
  _atom_site_occupancy
  _atom_site_fract_x
  _atom_site_fract_y
  _atom_site_fract_z
  _atom_site_thermal_displace_type
  _atom_site_B_iso_or_equiv
  _atom_site_type_symbol
  Hf1      1.0000 0.26703  0.02202  0.14166  Biso   1.000  Hf
  Hf2      1.0000 0.34042  0.23225  0.40002  Biso   1.000  Hf
  Hf3      1.0000 0.71779  0.27198  0.11183  Biso   1.000  Hf
  Hf4      1.0000 0.71981  0.47637  0.34369  Biso   1.000  Hf
  O1       1.0000 0.06035  0.16501  0.07694  Biso   1.000  O
  O2       1.0000 0.00518  0.12307  0.32694  Biso   1.000  O
  O3       1.0000 0.91923  0.43211  0.15762  Biso   1.000  O
  O4       1.0000 0.97366  0.33793  0.41920  Biso   1.000  O
  O5       1.0000 0.52017  0.11533  0.24237  Biso   1.000  O
  O6       1.0000 0.55495  0.10384  0.50223  Biso   1.000  O
  O7       1.0000 0.44356  0.37946  0.00854  Biso   1.000  O
  O8       1.0000 0.42031  0.37772  0.25467  Biso   1.000  O
  Hf5      1.0000 0.27136  0.01757  0.65079  Biso   1.000  Hf
  Hf6      1.0000 0.27616  0.23102  0.89718  Biso   1.000  Hf
  Hf7      1.0000 0.73317  0.26626  0.60719  Biso   1.000  Hf
  Hf8      1.0000 0.72405  0.47545  0.85499  Biso   1.000  Hf
  O9       1.0000 0.08141  0.16401  0.57316  Biso   1.000  O
  O10      1.0000 0.06469  0.08443  0.82890  Biso   1.000  O
  O11      1.0000 0.93954  0.41246  0.67402  Biso   1.000  O
  O12      1.0000 0.92633  0.33176  0.92418  Biso   1.000  O
  O13      1.0000 0.55170  0.12860  0.74372  Biso   1.000  O
  O14      1.0000 0.54539  0.12254  0.99309  Biso   1.000  O
  O15      1.0000 0.46663  0.37830  0.51189  Biso   1.000  O
  O16      1.0000 0.44853  0.37125  0.75936  Biso   1.000  O
  Hf9      1.0000 0.27436  0.52377  0.14222  Biso   1.000  Hf
  Hf10     1.0000 0.27204  0.72292  0.39705  Biso   1.000  Hf
  Hf11     1.0000 0.71823  0.77180  0.10419  Biso   1.000  Hf
  Hf12     1.0000 0.70372  0.96791  0.35784  Biso   1.000  Hf
  O17      1.0000 0.06859  0.67391  0.07817  Biso   1.000  O
  O18      1.0000 0.05925  0.58519  0.32508  Biso   1.000  O
  O19      1.0000 0.92599  0.91616  0.17961  Biso   1.000  O
  O20      1.0000 0.93400  0.83839  0.42570  Biso   1.000  O
  O21      1.0000 0.54978  0.62969  0.24023  Biso   1.000  O
  O22      1.0000 0.54850  0.61830  0.48873  Biso   1.000  O
  O23      1.0000 0.44426  0.88113  0.01073  Biso   1.000  O
  O24      1.0000 0.43444  0.86948  0.26224  Biso   1.000  O
  Hf13     1.0000 0.28028  0.52097  0.64714  Biso   1.000  Hf
  Hf14     1.0000 0.27377  0.72872  0.89632  Biso   1.000  Hf
  Hf15     1.0000 0.71885  0.76879  0.60538  Biso   1.000  Hf
  Hf16     1.0000 0.71934  0.97998  0.85580  Biso   1.000  Hf
  O25      1.0000 0.06177  0.66166  0.57736  Biso   1.000  O
  O26      1.0000 0.06658  0.58431  0.82887  Biso   1.000  O
  O27      1.0000 0.92690  0.91367  0.67438  Biso   1.000  O
  O28      1.0000 0.92913  0.83679  0.92476  Biso   1.000  O
  O29      1.0000 0.55108  0.62792  0.74037  Biso   1.000  O
  O30      1.0000 0.55120  0.62330  0.98974  Biso   1.000  O
  O31      1.0000 0.43877  0.87029  0.51193  Biso   1.000  O
  O32      1.0000 0.44596  0.87081  0.76181  Biso   1.000  O
  B1       1.0000 0.85445  0.24336  0.34515  Biso   1.000  B
