data_image0
_cell_length_a       10.0657
_cell_length_b       10.4376
_cell_length_c       5.04151
_cell_angle_alpha    90.1483
_cell_angle_beta     90.1438
_cell_angle_gamma    90.1898

_symmetry_space_group_name_H-M    "P 1"
_symmetry_int_tables_number       1

loop_
  _symmetry_equiv_pos_as_xyz
  'x, y, z'

loop_
  _atom_site_label
  _atom_site_occupancy
  _atom_site_fract_x
  _atom_site_fract_y
  _atom_site_fract_z
  _atom_site_thermal_displace_type
  _atom_site_B_iso_or_equiv
  _atom_site_type_symbol
  Ba1      1.0000 0.11376  0.99963  0.25021  Biso   1.000  Ba
  Hf1      1.0000 0.13532  0.51560  0.25189  Biso   1.000  Hf
  Hf2      1.0000 0.63573  0.01761  0.25260  Biso   1.000  Hf
  Hf3      1.0000 0.63223  0.51291  0.25576  Biso   1.000  Hf
  Hf4      1.0000 0.13449  0.23559  0.74510  Biso   1.000  Hf
  Hf5      1.0000 0.13877  0.73088  0.75748  Biso   1.000  Hf
  Hf6      1.0000 0.63287  0.23417  0.75119  Biso   1.000  Hf
  Hf7      1.0000 0.63292  0.72922  0.75818  Biso   1.000  Hf
  Hf8      1.0000 0.36536  0.26506  0.25563  Biso   1.000  Hf
  Hf9      1.0000 0.37251  0.76148  0.25371  Biso   1.000  Hf
  Hf10     1.0000 0.86165  0.27170  0.25151  Biso   1.000  Hf
  Hf11     1.0000 0.86263  0.75616  0.24597  Biso   1.000  Hf
  Hf12     1.0000 0.36523  0.48075  0.75497  Biso   1.000  Hf
  Hf13     1.0000 0.37177  0.98375  0.74861  Biso   1.000  Hf
  Hf14     1.0000 0.86724  0.48267  0.75427  Biso   1.000  Hf
  Hf15     1.0000 0.85561  0.98450  0.76006  Biso   1.000  Hf
  Hf16     1.0000 0.03596  0.21311  0.37978  Biso   1.000  Hf
  Hf17     1.0000 0.03962  0.69459  0.38843  Biso   1.000  Hf
  Hf18     1.0000 0.53969  0.18588  0.38298  Biso   1.000  Hf
  Hf19     1.0000 0.53869  0.67975  0.39884  Biso   1.000  Hf
  Hf20     1.0000 0.03133  0.06867  0.79113  Biso   1.000  Hf
  Hf21     1.0000 0.03468  0.56861  0.89378  Biso   1.000  Hf
  Hf22     1.0000 0.54236  0.06534  0.88792  Biso   1.000  Hf
  Hf23     1.0000 0.53387  0.56515  0.89885  Biso   1.000  Hf
  Hf24     1.0000 0.46538  0.43221  0.39596  Biso   1.000  Hf
  Hf25     1.0000 0.47015  0.93368  0.39112  Biso   1.000  Hf
  Hf26     1.0000 0.96064  0.44393  0.38803  Biso   1.000  Hf
  Hf27     1.0000 0.91244  0.93657  0.38038  Biso   1.000  Hf
  Hf28     1.0000 0.46474  0.31583  0.89071  Biso   1.000  Hf
  Hf29     1.0000 0.47439  0.81716  0.90197  Biso   1.000  Hf
  Hf30     1.0000 0.96396  0.31956  0.89051  Biso   1.000  Hf
  Hf31     1.0000 0.97109  0.82214  0.90057  Biso   1.000  Hf
  Hf32     1.0000 0.28746  0.13020  0.51960  Biso   1.000  Hf
  Hf33     1.0000 0.26894  0.61116  0.50175  Biso   1.000  Hf
  Hf34     1.0000 0.76667  0.12199  0.50696  Biso   1.000  Hf
  Hf35     1.0000 0.77119  0.61614  0.49871  Biso   1.000  Hf
  Hf36     1.0000 0.27500  0.13317  0.99311  Biso   1.000  Hf
  Hf37     1.0000 0.27227  0.62831  0.00368  Biso   1.000  Hf
  Hf38     1.0000 0.77303  0.13301  0.00468  Biso   1.000  Hf
  Hf39     1.0000 0.76915  0.62803  0.99613  Biso   1.000  Hf
  Hf40     1.0000 0.23031  0.38276  0.00290  Biso   1.000  Hf
  Hf41     1.0000 0.24807  0.87058  0.99026  Biso   1.000  Hf
  Hf42     1.0000 0.72844  0.38271  0.99971  Biso   1.000  Hf
  Hf43     1.0000 0.72828  0.87577  0.00608  Biso   1.000  Hf
  Hf44     1.0000 0.22947  0.37046  0.50000  Biso   1.000  Hf
  Hf45     1.0000 0.25287  0.85100  0.52165  Biso   1.000  Hf
  Hf46     1.0000 0.72935  0.36992  0.50297  Biso   1.000  Hf
  Hf47     1.0000 0.72217  0.86543  0.50435  Biso   1.000  Hf
