data_image0
_cell_length_a       10.1636
_cell_length_b       10.6747
_cell_length_c       5.13861
_cell_angle_alpha    89.5881
_cell_angle_beta     91.1984
_cell_angle_gamma    93.9401

_symmetry_space_group_name_H-M    "P 1"
_symmetry_int_tables_number       1

loop_
  _symmetry_equiv_pos_as_xyz
  'x, y, z'

loop_
  _atom_site_label
  _atom_site_occupancy
  _atom_site_fract_x
  _atom_site_fract_y
  _atom_site_fract_z
  _atom_site_thermal_displace_type
  _atom_site_B_iso_or_equiv
  _atom_site_type_symbol
  Hf1      1.0000 0.13985  0.96722  0.30687  Biso   1.000  Hf
  Hf2      1.0000 0.10573  0.19782  0.75071  Biso   1.000  Hf
  Hf3      1.0000 0.37846  0.28467  0.20682  Biso   1.000  Hf
  Hf4      1.0000 0.36212  0.01821  0.79549  Biso   1.000  Hf
  Hf5      1.0000 0.93834  0.16830  0.97081  Biso   1.000  Hf
  Hf6      1.0000 0.00743  0.05610  0.53984  Biso   1.000  Hf
  Hf7      1.0000 0.95432  0.32109  0.58914  Biso   1.000  Hf
  Hf8      1.0000 0.96859  0.43927  0.08379  Biso   1.000  Hf
  Hf9      1.0000 0.25599  0.12880  0.50736  Biso   1.000  Hf
  Hf10     1.0000 0.21487  0.09025  0.00983  Biso   1.000  Hf
  Hf11     1.0000 0.24862  0.34241  0.87021  Biso   1.000  Hf
  Hf12     1.0000 0.27015  0.43332  0.36980  Biso   1.000  Hf
  Hf13     1.0000 0.12830  0.55377  0.23368  Biso   1.000  Hf
  Hf14     1.0000 0.15715  0.74024  0.73322  Biso   1.000  Hf
  Hf15     1.0000 0.39706  0.75884  0.20839  Biso   1.000  Hf
  Hf16     1.0000 0.36959  0.48994  0.70184  Biso   1.000  Hf
  Hf17     1.0000 0.03075  0.68604  0.03731  Biso   1.000  Hf
  Hf18     1.0000 0.04206  0.57239  0.58035  Biso   1.000  Hf
  Hf19     1.0000 0.03003  0.81451  0.48033  Biso   1.000  Hf
  Hf20     1.0000 0.98028  0.92731  0.04471  Biso   1.000  Hf
  Hf21     1.0000 0.27641  0.65796  0.47032  Biso   1.000  Hf
  Hf22     1.0000 0.27395  0.61271  0.96010  Biso   1.000  Hf
  Hf23     1.0000 0.24377  0.85358  0.03152  Biso   1.000  Hf
  Hf24     1.0000 0.27470  0.88780  0.54223  Biso   1.000  Hf
  Hf25     1.0000 0.62980  0.98155  0.30011  Biso   1.000  Hf
  Hf26     1.0000 0.61417  0.23262  0.71887  Biso   1.000  Hf
  Hf27     1.0000 0.82544  0.26261  0.23977  Biso   1.000  Hf
  Hf28     1.0000 0.84993  0.01049  0.80140  Biso   1.000  Hf
  Hf29     1.0000 0.46919  0.17488  0.96950  Biso   1.000  Hf
  Hf30     1.0000 0.51256  0.07230  0.53802  Biso   1.000  Hf
  Hf31     1.0000 0.47516  0.33068  0.53952  Biso   1.000  Hf
  Hf32     1.0000 0.48055  0.43160  0.02905  Biso   1.000  Hf
  Hf33     1.0000 0.75193  0.13366  0.51234  Biso   1.000  Hf
  Hf34     1.0000 0.70629  0.10524  0.01387  Biso   1.000  Hf
  Hf35     1.0000 0.72390  0.36194  0.96340  Biso   1.000  Hf
  Hf36     1.0000 0.72756  0.39228  0.46759  Biso   1.000  Hf
  Hf37     1.0000 0.63985  0.51853  0.21070  Biso   1.000  Hf
  Hf38     1.0000 0.65619  0.72774  0.70707  Biso   1.000  Hf
  Hf39     1.0000 0.87966  0.76855  0.21207  Biso   1.000  Hf
  Hf40     1.0000 0.87637  0.47829  0.72778  Biso   1.000  Hf
  Hf41     1.0000 0.53798  0.67324  0.02055  Biso   1.000  Hf
  Hf42     1.0000 0.53436  0.57795  0.52683  Biso   1.000  Hf
  Hf43     1.0000 0.53014  0.82339  0.48434  Biso   1.000  Hf
  Hf44     1.0000 0.48248  0.92462  0.04346  Biso   1.000  Hf
  Hf45     1.0000 0.78185  0.63773  0.46435  Biso   1.000  Hf
  Hf46     1.0000 0.77483  0.61198  0.96411  Biso   1.000  Hf
  Hf47     1.0000 0.73781  0.85907  0.99294  Biso   1.000  Hf
  Hf48     1.0000 0.77504  0.88477  0.49991  Biso   1.000  Hf
  Ba1      1.0000 0.10453  0.26678  0.25202  Biso   1.000  Ba
