data_image0
_cell_length_a       10.0708
_cell_length_b       5.31223
_cell_length_c       10.1734
_cell_angle_alpha    85.5811
_cell_angle_beta     89.7255
_cell_angle_gamma    90.4768

_symmetry_space_group_name_H-M    "P 1"
_symmetry_int_tables_number       1

loop_
  _symmetry_equiv_pos_as_xyz
  'x, y, z'

loop_
  _atom_site_label
  _atom_site_occupancy
  _atom_site_fract_x
  _atom_site_fract_y
  _atom_site_fract_z
  _atom_site_thermal_displace_type
  _atom_site_B_iso_or_equiv
  _atom_site_type_symbol
  Hf1      1.0000 0.13671  0.11001  0.15965  Biso   1.000  Hf
  Hf2      1.0000 0.13337  0.46701  0.39451  Biso   1.000  Hf
  Hf3      1.0000 0.37537  0.56820  0.13722  Biso   1.000  Hf
  Hf4      1.0000 0.36831  0.95768  0.38277  Biso   1.000  Hf
  Hf5      1.0000 0.02998  0.40813  0.20823  Biso   1.000  Hf
  Hf6      1.0000 0.05902  0.10187  0.41474  Biso   1.000  Hf
  Hf7      1.0000 0.47631  0.87660  0.21562  Biso   1.000  Hf
  Hf8      1.0000 0.45985  0.61341  0.45706  Biso   1.000  Hf
  Hf9      1.0000 0.27989  0.27049  0.26729  Biso   1.000  Hf
  Hf10     1.0000 0.27673  0.22924  0.50997  Biso   1.000  Hf
  Hf11     1.0000 0.23152  0.73439  0.50884  Biso   1.000  Hf
  Hf12     1.0000 0.22863  0.75361  0.25868  Biso   1.000  Hf
  Hf13     1.0000 0.13131  0.99217  0.61863  Biso   1.000  Hf
  Hf14     1.0000 0.11154  0.33530  0.82903  Biso   1.000  Hf
  Hf15     1.0000 0.35881  0.49416  0.63463  Biso   1.000  Hf
  Hf16     1.0000 0.40247  0.94372  0.85927  Biso   1.000  Hf
  Hf17     1.0000 0.05883  0.36467  0.62355  Biso   1.000  Hf
  Hf18     1.0000 0.01280  0.15526  0.97720  Biso   1.000  Hf
  Hf19     1.0000 0.47900  0.78356  0.69719  Biso   1.000  Hf
  Hf20     1.0000 0.48011  0.61511  0.95722  Biso   1.000  Hf
  Hf21     1.0000 0.27188  0.17339  0.75176  Biso   1.000  Hf
  Hf22     1.0000 0.24014  0.36863  0.02288  Biso   1.000  Hf
  Hf23     1.0000 0.28863  0.89652  0.02183  Biso   1.000  Hf
  Hf24     1.0000 0.23317  0.67499  0.76232  Biso   1.000  Hf
  Hf25     1.0000 0.64554  0.05653  0.13705  Biso   1.000  Hf
  Hf26     1.0000 0.62399  0.45788  0.38847  Biso   1.000  Hf
  Hf27     1.0000 0.84409  0.55838  0.16243  Biso   1.000  Hf
  Hf28     1.0000 0.87496  0.95991  0.39217  Biso   1.000  Hf
  Hf29     1.0000 0.53816  0.37397  0.20892  Biso   1.000  Hf
  Hf30     1.0000 0.53241  0.11732  0.45883  Biso   1.000  Hf
  Hf31     1.0000 0.96473  0.88603  0.20876  Biso   1.000  Hf
  Hf32     1.0000 0.94885  0.60109  0.42911  Biso   1.000  Hf
  Hf33     1.0000 0.76968  0.23872  0.27000  Biso   1.000  Hf
  Hf34     1.0000 0.76458  0.25645  0.51064  Biso   1.000  Hf
  Hf35     1.0000 0.72011  0.73729  0.50917  Biso   1.000  Hf
  Hf36     1.0000 0.72215  0.75137  0.26817  Biso   1.000  Hf
  Hf37     1.0000 0.63968  0.00473  0.62599  Biso   1.000  Hf
  Hf38     1.0000 0.62539  0.43929  0.87040  Biso   1.000  Hf
  Hf39     1.0000 0.86830  0.52288  0.62341  Biso   1.000  Hf
  Hf40     1.0000 0.87549  0.94172  0.84043  Biso   1.000  Hf
  Hf41     1.0000 0.51672  0.27429  0.71964  Biso   1.000  Hf
  Hf42     1.0000 0.54574  0.10616  0.96049  Biso   1.000  Hf
  Hf43     1.0000 0.93253  0.89846  0.61758  Biso   1.000  Hf
  Hf44     1.0000 0.95290  0.58117  0.81381  Biso   1.000  Hf
  Hf45     1.0000 0.76667  0.21946  0.75560  Biso   1.000  Hf
  Hf46     1.0000 0.74623  0.36196  0.02442  Biso   1.000  Hf
  Hf47     1.0000 0.78397  0.84383  0.01903  Biso   1.000  Hf
  Hf48     1.0000 0.72452  0.72278  0.75832  Biso   1.000  Hf
  Ba1      1.0000 0.08350  0.70249  0.00379  Biso   1.000  Ba
