data_image0
_cell_length_a       10.0648
_cell_length_b       5.15627
_cell_length_c       10.0647
_cell_angle_alpha    89.4343
_cell_angle_beta     89.6739
_cell_angle_gamma    89.4431

_symmetry_space_group_name_H-M    "P 1"
_symmetry_int_tables_number       1

loop_
  _symmetry_equiv_pos_as_xyz
  'x, y, z'

loop_
  _atom_site_label
  _atom_site_occupancy
  _atom_site_fract_x
  _atom_site_fract_y
  _atom_site_fract_z
  _atom_site_thermal_displace_type
  _atom_site_B_iso_or_equiv
  _atom_site_type_symbol
  Hf1      1.0000 0.11882  0.00917  0.11886  Biso   1.000  Hf
  Hf2      1.0000 0.15096  0.52363  0.38790  Biso   1.000  Hf
  Hf3      1.0000 0.38789  0.52373  0.15093  Biso   1.000  Hf
  Hf4      1.0000 0.38823  0.95018  0.38821  Biso   1.000  Hf
  Hf5      1.0000 0.02315  0.35700  0.02317  Biso   1.000  Hf
  Hf6      1.0000 0.97539  0.17974  0.23967  Biso   1.000  Hf
  Hf7      1.0000 0.02872  0.66575  0.22289  Biso   1.000  Hf
  Hf8      1.0000 0.98942  0.83468  0.98969  Biso   1.000  Hf
  Hf9      1.0000 0.21516  0.33478  0.21516  Biso   1.000  Hf
  Hf10     1.0000 0.23961  0.17972  0.97536  Biso   1.000  Hf
  Hf11     1.0000 0.22279  0.66579  0.02874  Biso   1.000  Hf
  Hf12     1.0000 0.25592  0.83183  0.25594  Biso   1.000  Hf
  Hf13     1.0000 0.12441  0.01320  0.62532  Biso   1.000  Hf
  Hf14     1.0000 0.12834  0.50296  0.85894  Biso   1.000  Hf
  Hf15     1.0000 0.38392  0.47637  0.60960  Biso   1.000  Hf
  Hf16     1.0000 0.37723  0.99680  0.87361  Biso   1.000  Hf
  Hf17     1.0000 0.01032  0.30348  0.50621  Biso   1.000  Hf
  Hf18     1.0000 0.99762  0.21800  0.76317  Biso   1.000  Hf
  Hf19     1.0000 0.99789  0.71575  0.73193  Biso   1.000  Hf
  Hf20     1.0000 0.01327  0.80381  0.48026  Biso   1.000  Hf
  Hf21     1.0000 0.24438  0.30170  0.72791  Biso   1.000  Hf
  Hf22     1.0000 0.25467  0.21212  0.48431  Biso   1.000  Hf
  Hf23     1.0000 0.25089  0.73819  0.52873  Biso   1.000  Hf
  Hf24     1.0000 0.23537  0.80834  0.77508  Biso   1.000  Hf
  Hf25     1.0000 0.62529  0.01335  0.12438  Biso   1.000  Hf
  Hf26     1.0000 0.60965  0.47641  0.38386  Biso   1.000  Hf
  Hf27     1.0000 0.85893  0.50322  0.12823  Biso   1.000  Hf
  Hf28     1.0000 0.87366  0.99670  0.37724  Biso   1.000  Hf
  Hf29     1.0000 0.50618  0.30370  0.01026  Biso   1.000  Hf
  Hf30     1.0000 0.48429  0.21220  0.25464  Biso   1.000  Hf
  Hf31     1.0000 0.52872  0.73827  0.25088  Biso   1.000  Hf
  Hf32     1.0000 0.48012  0.80409  0.01334  Biso   1.000  Hf
  Hf33     1.0000 0.72789  0.30186  0.24427  Biso   1.000  Hf
  Hf34     1.0000 0.76314  0.21817  0.99753  Biso   1.000  Hf
  Hf35     1.0000 0.73179  0.71590  0.99787  Biso   1.000  Hf
  Hf36     1.0000 0.77506  0.80847  0.23535  Biso   1.000  Hf
  Hf37     1.0000 0.62928  0.99049  0.62923  Biso   1.000  Hf
  Hf38     1.0000 0.62066  0.49188  0.87364  Biso   1.000  Hf
  Hf39     1.0000 0.87376  0.49194  0.62059  Biso   1.000  Hf
  Hf40     1.0000 0.86499  0.99062  0.86500  Biso   1.000  Hf
  Hf41     1.0000 0.50793  0.23307  0.50788  Biso   1.000  Hf
  Hf42     1.0000 0.50171  0.19917  0.75402  Biso   1.000  Hf
  Hf43     1.0000 0.49216  0.69580  0.75619  Biso   1.000  Hf
  Hf44     1.0000 0.51508  0.75169  0.51504  Biso   1.000  Hf
  Hf45     1.0000 0.74507  0.28118  0.74499  Biso   1.000  Hf
  Hf46     1.0000 0.75407  0.19914  0.50163  Biso   1.000  Hf
  Hf47     1.0000 0.75619  0.69573  0.49214  Biso   1.000  Hf
  Hf48     1.0000 0.74856  0.76934  0.74853  Biso   1.000  Hf
  Be1      1.0000 0.12147  0.50723  0.12152  Biso   1.000  Be
