data_image0
_cell_length_a       9.97317
_cell_length_b       10.3636
_cell_length_c       5.04691
_cell_angle_alpha    90.3438
_cell_angle_beta     89.5457
_cell_angle_gamma    89.9422

_symmetry_space_group_name_H-M    "P 1"
_symmetry_int_tables_number       1

loop_
  _symmetry_equiv_pos_as_xyz
  'x, y, z'

loop_
  _atom_site_label
  _atom_site_occupancy
  _atom_site_fract_x
  _atom_site_fract_y
  _atom_site_fract_z
  _atom_site_thermal_displace_type
  _atom_site_B_iso_or_equiv
  _atom_site_type_symbol
  Hf1      1.0000 0.13799  0.02803  0.26294  Biso   1.000  Hf
  Hf2      1.0000 0.13851  0.22858  0.81997  Biso   1.000  Hf
  Hf3      1.0000 0.35822  0.26486  0.25074  Biso   1.000  Hf
  Hf4      1.0000 0.37213  0.48601  0.74277  Biso   1.000  Hf
  Hf5      1.0000 0.01483  0.17722  0.47256  Biso   1.000  Hf
  Hf6      1.0000 0.03154  0.06605  0.92880  Biso   1.000  Hf
  Hf7      1.0000 0.46306  0.43171  0.38672  Biso   1.000  Hf
  Hf8      1.0000 0.46172  0.31468  0.87763  Biso   1.000  Hf
  Hf9      1.0000 0.26990  0.12241  0.52270  Biso   1.000  Hf
  Hf10     1.0000 0.29263  0.11663  0.00590  Biso   1.000  Hf
  Hf11     1.0000 0.23950  0.39181  0.99491  Biso   1.000  Hf
  Hf12     1.0000 0.21463  0.36551  0.49927  Biso   1.000  Hf
  Hf13     1.0000 0.13801  0.52966  0.23659  Biso   1.000  Hf
  Hf14     1.0000 0.13490  0.73850  0.74709  Biso   1.000  Hf
  Hf15     1.0000 0.36800  0.76790  0.24609  Biso   1.000  Hf
  Hf16     1.0000 0.36726  0.97860  0.74960  Biso   1.000  Hf
  Hf17     1.0000 0.03432  0.68262  0.38649  Biso   1.000  Hf
  Hf18     1.0000 0.03615  0.56936  0.88210  Biso   1.000  Hf
  Hf19     1.0000 0.46519  0.93247  0.38172  Biso   1.000  Hf
  Hf20     1.0000 0.46971  0.81488  0.89020  Biso   1.000  Hf
  Hf21     1.0000 0.27292  0.61913  0.49063  Biso   1.000  Hf
  Hf22     1.0000 0.27173  0.63666  0.98827  Biso   1.000  Hf
  Hf23     1.0000 0.22832  0.88081  0.00214  Biso   1.000  Hf
  Hf24     1.0000 0.23313  0.86817  0.49908  Biso   1.000  Hf
  Hf25     1.0000 0.63046  0.01406  0.23349  Biso   1.000  Hf
  Hf26     1.0000 0.62710  0.23054  0.73290  Biso   1.000  Hf
  Hf27     1.0000 0.85308  0.26040  0.23421  Biso   1.000  Hf
  Hf28     1.0000 0.86781  0.48031  0.74822  Biso   1.000  Hf
  Hf29     1.0000 0.53370  0.18282  0.37321  Biso   1.000  Hf
  Hf30     1.0000 0.54143  0.06159  0.86874  Biso   1.000  Hf
  Hf31     1.0000 0.98061  0.41448  0.37129  Biso   1.000  Hf
  Hf32     1.0000 0.96110  0.32064  0.89313  Biso   1.000  Hf
  Hf33     1.0000 0.76453  0.11235  0.47689  Biso   1.000  Hf
  Hf34     1.0000 0.76792  0.13347  0.97532  Biso   1.000  Hf
  Hf35     1.0000 0.72578  0.38121  0.99076  Biso   1.000  Hf
  Hf36     1.0000 0.73279  0.36718  0.48971  Biso   1.000  Hf
  Hf37     1.0000 0.63364  0.51633  0.24717  Biso   1.000  Hf
  Hf38     1.0000 0.63920  0.73335  0.74421  Biso   1.000  Hf
  Hf39     1.0000 0.86754  0.76893  0.24148  Biso   1.000  Hf
  Hf40     1.0000 0.87073  0.98716  0.73618  Biso   1.000  Hf
  Hf41     1.0000 0.53686  0.68209  0.39047  Biso   1.000  Hf
  Hf42     1.0000 0.53683  0.56657  0.88969  Biso   1.000  Hf
  Hf43     1.0000 0.97032  0.93017  0.39362  Biso   1.000  Hf
  Hf44     1.0000 0.96444  0.81796  0.88308  Biso   1.000  Hf
  Hf45     1.0000 0.77445  0.61360  0.48973  Biso   1.000  Hf
  Hf46     1.0000 0.77184  0.63031  0.99252  Biso   1.000  Hf
  Hf47     1.0000 0.73426  0.88292  0.98768  Biso   1.000  Hf
  Hf48     1.0000 0.73114  0.86551  0.48861  Biso   1.000  Hf
  Be1      1.0000 0.09482  0.29137  0.34834  Biso   1.000  Be
