data_image0
_cell_length_a       5.09226
_cell_length_b       10.335
_cell_length_c       9.97721
_cell_angle_alpha    92.0626
_cell_angle_beta     89.095
_cell_angle_gamma    93.5381

_symmetry_space_group_name_H-M    "P 1"
_symmetry_int_tables_number       1

loop_
  _symmetry_equiv_pos_as_xyz
  'x, y, z'

loop_
  _atom_site_label
  _atom_site_occupancy
  _atom_site_fract_x
  _atom_site_fract_y
  _atom_site_fract_z
  _atom_site_thermal_displace_type
  _atom_site_B_iso_or_equiv
  _atom_site_type_symbol
  Hf1      1.0000 0.30687  0.97006  0.14685  Biso   1.000  Hf
  Hf2      1.0000 0.25881  0.24357  0.37648  Biso   1.000  Hf
  Hf3      1.0000 0.61307  0.25972  0.11739  Biso   1.000  Hf
  Hf4      1.0000 0.75796  0.00739  0.39850  Biso   1.000  Hf
  Hf5      1.0000 0.91592  0.14674  0.02805  Biso   1.000  Hf
  Hf6      1.0000 0.05180  0.07627  0.26395  Biso   1.000  Hf
  Hf7      1.0000 0.93605  0.30724  0.25634  Biso   1.000  Hf
  Hf8      1.0000 0.96966  0.39221  0.00809  Biso   1.000  Hf
  Hf9      1.0000 0.54276  0.12403  0.26304  Biso   1.000  Hf
  Hf10     1.0000 0.43889  0.09964  0.99159  Biso   1.000  Hf
  Hf11     1.0000 0.47605  0.37224  0.96931  Biso   1.000  Hf
  Hf12     1.0000 0.46763  0.40315  0.24718  Biso   1.000  Hf
  Hf13     1.0000 0.21608  0.02635  0.64517  Biso   1.000  Hf
  Hf14     1.0000 0.18246  0.24503  0.89970  Biso   1.000  Hf
  Hf15     1.0000 0.73380  0.26200  0.63535  Biso   1.000  Hf
  Hf16     1.0000 0.74283  0.99285  0.89991  Biso   1.000  Hf
  Hf17     1.0000 0.99302  0.15078  0.51362  Biso   1.000  Hf
  Hf18     1.0000 0.93551  0.11681  0.76737  Biso   1.000  Hf
  Hf19     1.0000 0.03605  0.36722  0.75340  Biso   1.000  Hf
  Hf20     1.0000 0.06041  0.39734  0.49080  Biso   1.000  Hf
  Hf21     1.0000 0.42695  0.18933  0.74336  Biso   1.000  Hf
  Hf22     1.0000 0.49038  0.10125  0.51187  Biso   1.000  Hf
  Hf23     1.0000 0.55581  0.34005  0.48074  Biso   1.000  Hf
  Hf24     1.0000 0.57291  0.43532  0.71550  Biso   1.000  Hf
  Hf25     1.0000 0.27069  0.51304  0.10619  Biso   1.000  Hf
  Hf26     1.0000 0.30308  0.74872  0.37989  Biso   1.000  Hf
  Hf27     1.0000 0.78013  0.73814  0.12222  Biso   1.000  Hf
  Hf28     1.0000 0.78868  0.47696  0.37329  Biso   1.000  Hf
  Hf29     1.0000 0.05686  0.64494  0.98825  Biso   1.000  Hf
  Hf30     1.0000 0.95684  0.57560  0.22120  Biso   1.000  Hf
  Hf31     1.0000 0.08428  0.82350  0.23916  Biso   1.000  Hf
  Hf32     1.0000 0.01017  0.89606  0.00644  Biso   1.000  Hf
  Hf33     1.0000 0.47294  0.64917  0.23072  Biso   1.000  Hf
  Hf34     1.0000 0.55755  0.60732  0.99138  Biso   1.000  Hf
  Hf35     1.0000 0.51124  0.84754  0.00380  Biso   1.000  Hf
  Hf36     1.0000 0.58785  0.88447  0.25201  Biso   1.000  Hf
  Hf37     1.0000 0.27253  0.51354  0.62679  Biso   1.000  Hf
  Hf38     1.0000 0.23571  0.77390  0.85574  Biso   1.000  Hf
  Hf39     1.0000 0.78725  0.74352  0.60376  Biso   1.000  Hf
  Hf40     1.0000 0.79165  0.50087  0.87520  Biso   1.000  Hf
  Hf41     1.0000 0.03407  0.63861  0.48451  Biso   1.000  Hf
  Hf42     1.0000 0.99939  0.61978  0.73748  Biso   1.000  Hf
  Hf43     1.0000 0.95234  0.86750  0.75328  Biso   1.000  Hf
  Hf44     1.0000 0.03944  0.89603  0.49935  Biso   1.000  Hf
  Hf45     1.0000 0.47996  0.68281  0.72647  Biso   1.000  Hf
  Hf46     1.0000 0.53693  0.59872  0.48388  Biso   1.000  Hf
  Hf47     1.0000 0.54688  0.85464  0.50290  Biso   1.000  Hf
  Hf48     1.0000 0.44184  0.93579  0.77131  Biso   1.000  Hf
  Be1      1.0000 0.06105  0.19486  0.16171  Biso   1.000  Be
