data_image0
_cell_length_a       4.97769
_cell_length_b       10.342
_cell_length_c       10.0271
_cell_angle_alpha    89.9267
_cell_angle_beta     89.0817
_cell_angle_gamma    90.1577

_symmetry_space_group_name_H-M    "P 1"
_symmetry_int_tables_number       1

loop_
  _symmetry_equiv_pos_as_xyz
  'x, y, z'

loop_
  _atom_site_label
  _atom_site_occupancy
  _atom_site_fract_x
  _atom_site_fract_y
  _atom_site_fract_z
  _atom_site_thermal_displace_type
  _atom_site_B_iso_or_equiv
  _atom_site_type_symbol
  Be1      1.0000 0.14570  0.94910  0.04628  Biso   1.000  Be
  Hf1      1.0000 0.26528  0.01549  0.62538  Biso   1.000  Hf
  Hf2      1.0000 0.27184  0.51775  0.12796  Biso   1.000  Hf
  Hf3      1.0000 0.27091  0.51659  0.62693  Biso   1.000  Hf
  Hf4      1.0000 0.27593  0.23075  0.37623  Biso   1.000  Hf
  Hf5      1.0000 0.26486  0.23021  0.87895  Biso   1.000  Hf
  Hf6      1.0000 0.27991  0.73739  0.37864  Biso   1.000  Hf
  Hf7      1.0000 0.27096  0.73192  0.87613  Biso   1.000  Hf
  Hf8      1.0000 0.71688  0.26471  0.12437  Biso   1.000  Hf
  Hf9      1.0000 0.73391  0.26611  0.62616  Biso   1.000  Hf
  Hf10     1.0000 0.72919  0.76726  0.12724  Biso   1.000  Hf
  Hf11     1.0000 0.73794  0.77072  0.62526  Biso   1.000  Hf
  Hf12     1.0000 0.73590  0.48457  0.37835  Biso   1.000  Hf
  Hf13     1.0000 0.73298  0.48387  0.87556  Biso   1.000  Hf
  Hf14     1.0000 0.74216  0.98784  0.36268  Biso   1.000  Hf
  Hf15     1.0000 0.70904  0.98809  0.87977  Biso   1.000  Hf
  Hf16     1.0000 0.04920  0.19397  0.21012  Biso   1.000  Hf
  Hf17     1.0000 0.07014  0.18461  0.69737  Biso   1.000  Hf
  Hf18     1.0000 0.06985  0.68582  0.20031  Biso   1.000  Hf
  Hf19     1.0000 0.07054  0.68421  0.69824  Biso   1.000  Hf
  Hf20     1.0000 0.07211  0.06783  0.44980  Biso   1.000  Hf
  Hf21     1.0000 0.06909  0.06177  0.94307  Biso   1.000  Hf
  Hf22     1.0000 0.07430  0.56749  0.44781  Biso   1.000  Hf
  Hf23     1.0000 0.06582  0.57027  0.94958  Biso   1.000  Hf
  Hf24     1.0000 0.93060  0.43412  0.19678  Biso   1.000  Hf
  Hf25     1.0000 0.92989  0.43468  0.69638  Biso   1.000  Hf
  Hf26     1.0000 0.96502  0.93638  0.18206  Biso   1.000  Hf
  Hf27     1.0000 0.92936  0.93414  0.70063  Biso   1.000  Hf
  Hf28     1.0000 0.93701  0.32025  0.44913  Biso   1.000  Hf
  Hf29     1.0000 0.93259  0.31963  0.94650  Biso   1.000  Hf
  Hf30     1.0000 0.94518  0.82215  0.44916  Biso   1.000  Hf
  Hf31     1.0000 0.93926  0.82812  0.95341  Biso   1.000  Hf
  Hf32     1.0000 0.55479  0.12725  0.25190  Biso   1.000  Hf
  Hf33     1.0000 0.53708  0.11653  0.74637  Biso   1.000  Hf
  Hf34     1.0000 0.54298  0.61329  0.24911  Biso   1.000  Hf
  Hf35     1.0000 0.54058  0.61802  0.75023  Biso   1.000  Hf
  Hf36     1.0000 0.54935  0.13284  0.49872  Biso   1.000  Hf
  Hf37     1.0000 0.55362  0.13989  0.99049  Biso   1.000  Hf
  Hf38     1.0000 0.54623  0.63486  0.50039  Biso   1.000  Hf
  Hf39     1.0000 0.54313  0.63471  0.99910  Biso   1.000  Hf
  Hf40     1.0000 0.46341  0.38339  0.50124  Biso   1.000  Hf
  Hf41     1.0000 0.45630  0.38560  0.00026  Biso   1.000  Hf
  Hf42     1.0000 0.47155  0.88663  0.50150  Biso   1.000  Hf
  Hf43     1.0000 0.43462  0.88203  0.00529  Biso   1.000  Hf
  Hf44     1.0000 0.45376  0.37057  0.25049  Biso   1.000  Hf
  Hf45     1.0000 0.45995  0.36696  0.75164  Biso   1.000  Hf
  Hf46     1.0000 0.50284  0.85670  0.26100  Biso   1.000  Hf
  Hf47     1.0000 0.46001  0.86769  0.75191  Biso   1.000  Hf
