data_image0
_cell_length_a       10.1241
_cell_length_b       5.33099
_cell_length_c       10.1856
_cell_angle_alpha    87.7029
_cell_angle_beta     88.9316
_cell_angle_gamma    92.3468

_symmetry_space_group_name_H-M    "P 1"
_symmetry_int_tables_number       1

loop_
  _symmetry_equiv_pos_as_xyz
  'x, y, z'

loop_
  _atom_site_label
  _atom_site_occupancy
  _atom_site_fract_x
  _atom_site_fract_y
  _atom_site_fract_z
  _atom_site_thermal_displace_type
  _atom_site_B_iso_or_equiv
  _atom_site_type_symbol
  Hf1      1.0000 0.14843  0.19753  0.16309  Biso   1.000  Hf
  Hf2      1.0000 0.13595  0.62031  0.39412  Biso   1.000  Hf
  Hf3      1.0000 0.40433  0.50519  0.10107  Biso   1.000  Hf
  Hf4      1.0000 0.39308  0.00080  0.40720  Biso   1.000  Hf
  Hf5      1.0000 0.01693  0.25878  0.00477  Biso   1.000  Hf
  Hf6      1.0000 0.96476  0.13193  0.24202  Biso   1.000  Hf
  Hf7      1.0000 0.96340  0.60738  0.28193  Biso   1.000  Hf
  Hf8      1.0000 0.10502  0.88654  0.87416  Biso   1.000  Hf
  Hf9      1.0000 0.24504  0.48004  0.23964  Biso   1.000  Hf
  Hf10     1.0000 0.30526  0.14247  0.03821  Biso   1.000  Hf
  Hf11     1.0000 0.27479  0.60143  0.95891  Biso   1.000  Hf
  Hf12     1.0000 0.21450  0.96945  0.31276  Biso   1.000  Hf
  Hf13     1.0000 0.10162  0.00462  0.65173  Biso   1.000  Hf
  Hf14     1.0000 0.09708  0.49251  0.84138  Biso   1.000  Hf
  Hf15     1.0000 0.36227  0.44679  0.64313  Biso   1.000  Hf
  Hf16     1.0000 0.33627  0.94563  0.86726  Biso   1.000  Hf
  Hf17     1.0000 0.06245  0.34466  0.52736  Biso   1.000  Hf
  Hf18     1.0000 0.96407  0.20985  0.75252  Biso   1.000  Hf
  Hf19     1.0000 0.95707  0.69033  0.73463  Biso   1.000  Hf
  Hf20     1.0000 0.00909  0.83434  0.49559  Biso   1.000  Hf
  Hf21     1.0000 0.22845  0.24651  0.77165  Biso   1.000  Hf
  Hf22     1.0000 0.28336  0.11872  0.55445  Biso   1.000  Hf
  Hf23     1.0000 0.31808  0.64025  0.47275  Biso   1.000  Hf
  Hf24     1.0000 0.22912  0.71271  0.70781  Biso   1.000  Hf
  Hf25     1.0000 0.59726  0.01491  0.13582  Biso   1.000  Hf
  Hf26     1.0000 0.59762  0.52259  0.36305  Biso   1.000  Hf
  Hf27     1.0000 0.84322  0.40810  0.13367  Biso   1.000  Hf
  Hf28     1.0000 0.84346  0.92512  0.36647  Biso   1.000  Hf
  Hf29     1.0000 0.55933  0.33679  0.02273  Biso   1.000  Hf
  Hf30     1.0000 0.47489  0.24508  0.25669  Biso   1.000  Hf
  Hf31     1.0000 0.47426  0.74710  0.24498  Biso   1.000  Hf
  Hf32     1.0000 0.50479  0.80774  0.98914  Biso   1.000  Hf
  Hf33     1.0000 0.71839  0.22748  0.27519  Biso   1.000  Hf
  Hf34     1.0000 0.77356  0.09431  0.03498  Biso   1.000  Hf
  Hf35     1.0000 0.78870  0.59039  0.96189  Biso   1.000  Hf
  Hf36     1.0000 0.72408  0.73282  0.22196  Biso   1.000  Hf
  Hf37     1.0000 0.61638  0.04632  0.64276  Biso   1.000  Hf
  Hf38     1.0000 0.61921  0.54608  0.85430  Biso   1.000  Hf
  Hf39     1.0000 0.88060  0.44824  0.59797  Biso   1.000  Hf
  Hf40     1.0000 0.88302  0.93984  0.89367  Biso   1.000  Hf
  Hf41     1.0000 0.51335  0.30278  0.51421  Biso   1.000  Hf
  Hf42     1.0000 0.47844  0.21953  0.77410  Biso   1.000  Hf
  Hf43     1.0000 0.48027  0.73103  0.73405  Biso   1.000  Hf
  Hf44     1.0000 0.56123  0.83940  0.47645  Biso   1.000  Hf
  Hf45     1.0000 0.71296  0.37806  0.71204  Biso   1.000  Hf
  Hf46     1.0000 0.79329  0.10606  0.53137  Biso   1.000  Hf
  Hf47     1.0000 0.76912  0.59666  0.46039  Biso   1.000  Hf
  Hf48     1.0000 0.71707  0.88281  0.78641  Biso   1.000  Hf
  Bi1      1.0000 0.06281  0.75014  0.08931  Biso   1.000  Bi
