data_image0
_cell_length_a       10.0298
_cell_length_b       10.2326
_cell_length_c       10.0298
_cell_angle_alpha    90
_cell_angle_beta     90
_cell_angle_gamma    90

_symmetry_space_group_name_H-M    "P 1"
_symmetry_int_tables_number       1

loop_
  _symmetry_equiv_pos_as_xyz
  'x, y, z'

loop_
  _atom_site_label
  _atom_site_occupancy
  _atom_site_fract_x
  _atom_site_fract_y
  _atom_site_fract_z
  _atom_site_thermal_displace_type
  _atom_site_B_iso_or_equiv
  _atom_site_type_symbol
  Bi1      1.0000 0.12491  0.00005  0.12491  Biso   1.000  Bi
  Hf1      1.0000 0.12433  0.25214  0.37617  Biso   1.000  Hf
  Hf2      1.0000 0.37617  0.25213  0.12433  Biso   1.000  Hf
  Hf3      1.0000 0.37673  0.00206  0.37673  Biso   1.000  Hf
  Hf4      1.0000 0.99567  0.15177  0.99566  Biso   1.000  Hf
  Hf5      1.0000 0.99353  0.10997  0.25629  Biso   1.000  Hf
  Hf6      1.0000 0.00143  0.35353  0.24839  Biso   1.000  Hf
  Hf7      1.0000 0.99905  0.39888  0.99905  Biso   1.000  Hf
  Hf8      1.0000 0.25415  0.15177  0.25415  Biso   1.000  Hf
  Hf9      1.0000 0.25628  0.10997  0.99353  Biso   1.000  Hf
  Hf10     1.0000 0.24839  0.35353  0.00143  Biso   1.000  Hf
  Hf11     1.0000 0.25077  0.39888  0.25077  Biso   1.000  Hf
  Hf12     1.0000 0.12491  0.00005  0.62491  Biso   1.000  Hf
  Hf13     1.0000 0.12549  0.25214  0.87365  Biso   1.000  Hf
  Hf14     1.0000 0.37469  0.24991  0.62507  Biso   1.000  Hf
  Hf15     1.0000 0.37673  0.99805  0.87308  Biso   1.000  Hf
  Hf16     1.0000 0.00231  0.14893  0.50298  Biso   1.000  Hf
  Hf17     1.0000 0.99851  0.10154  0.74955  Biso   1.000  Hf
  Hf18     1.0000 0.99991  0.35263  0.74801  Biso   1.000  Hf
  Hf19     1.0000 0.00051  0.39842  0.49844  Biso   1.000  Hf
  Hf20     1.0000 0.24750  0.14893  0.74684  Biso   1.000  Hf
  Hf21     1.0000 0.25131  0.10154  0.50027  Biso   1.000  Hf
  Hf22     1.0000 0.24991  0.35263  0.50181  Biso   1.000  Hf
  Hf23     1.0000 0.24930  0.39842  0.75138  Biso   1.000  Hf
  Hf24     1.0000 0.12491  0.50005  0.12491  Biso   1.000  Hf
  Hf25     1.0000 0.12549  0.74797  0.37617  Biso   1.000  Hf
  Hf26     1.0000 0.37617  0.74797  0.12549  Biso   1.000  Hf
  Hf27     1.0000 0.37518  0.49980  0.37518  Biso   1.000  Hf
  Hf28     1.0000 0.00143  0.64658  0.00143  Biso   1.000  Hf
  Hf29     1.0000 0.99905  0.60122  0.25076  Biso   1.000  Hf
  Hf30     1.0000 0.99567  0.84834  0.25415  Biso   1.000  Hf
  Hf31     1.0000 0.99353  0.89013  0.99353  Biso   1.000  Hf
  Hf32     1.0000 0.24839  0.64658  0.24839  Biso   1.000  Hf
  Hf33     1.0000 0.25076  0.60122  0.99905  Biso   1.000  Hf
  Hf34     1.0000 0.25415  0.84834  0.99566  Biso   1.000  Hf
  Hf35     1.0000 0.25628  0.89014  0.25628  Biso   1.000  Hf
  Hf36     1.0000 0.12491  0.50005  0.62491  Biso   1.000  Hf
  Hf37     1.0000 0.12433  0.74797  0.87365  Biso   1.000  Hf
  Hf38     1.0000 0.37469  0.75019  0.62475  Biso   1.000  Hf
  Hf39     1.0000 0.37518  0.50031  0.87464  Biso   1.000  Hf
  Hf40     1.0000 0.99991  0.64748  0.50181  Biso   1.000  Hf
  Hf41     1.0000 0.00051  0.60169  0.75138  Biso   1.000  Hf
  Hf42     1.0000 0.00231  0.85118  0.74684  Biso   1.000  Hf
  Hf43     1.0000 0.99851  0.89857  0.50027  Biso   1.000  Hf
  Hf44     1.0000 0.24991  0.64748  0.74801  Biso   1.000  Hf
  Hf45     1.0000 0.24930  0.60169  0.49844  Biso   1.000  Hf
  Hf46     1.0000 0.24750  0.85118  0.50298  Biso   1.000  Hf
  Hf47     1.0000 0.25131  0.89857  0.74955  Biso   1.000  Hf
  Hf48     1.0000 0.62491  0.00005  0.12491  Biso   1.000  Hf
  Hf49     1.0000 0.62507  0.24992  0.37469  Biso   1.000  Hf
  Hf50     1.0000 0.87365  0.25213  0.12549  Biso   1.000  Hf
  Hf51     1.0000 0.87308  0.99805  0.37673  Biso   1.000  Hf
  Hf52     1.0000 0.50298  0.14893  0.00231  Biso   1.000  Hf
  Hf53     1.0000 0.50027  0.10154  0.25131  Biso   1.000  Hf
  Hf54     1.0000 0.50181  0.35263  0.24991  Biso   1.000  Hf
  Hf55     1.0000 0.49844  0.39842  0.00051  Biso   1.000  Hf
  Hf56     1.0000 0.74684  0.14893  0.24750  Biso   1.000  Hf
  Hf57     1.0000 0.74955  0.10154  0.99851  Biso   1.000  Hf
  Hf58     1.0000 0.74801  0.35263  0.99991  Biso   1.000  Hf
  Hf59     1.0000 0.75138  0.39842  0.24930  Biso   1.000  Hf
  Hf60     1.0000 0.62491  0.00005  0.62491  Biso   1.000  Hf
  Hf61     1.0000 0.62475  0.24992  0.87512  Biso   1.000  Hf
  Hf62     1.0000 0.87512  0.24991  0.62475  Biso   1.000  Hf
  Hf63     1.0000 0.87308  0.00206  0.87308  Biso   1.000  Hf
  Hf64     1.0000 0.50124  0.14853  0.50124  Biso   1.000  Hf
  Hf65     1.0000 0.49965  0.10179  0.75017  Biso   1.000  Hf
  Hf66     1.0000 0.49948  0.35158  0.75033  Biso   1.000  Hf
  Hf67     1.0000 0.50006  0.39838  0.50006  Biso   1.000  Hf
  Hf68     1.0000 0.74858  0.14853  0.74858  Biso   1.000  Hf
  Hf69     1.0000 0.75017  0.10179  0.49965  Biso   1.000  Hf
  Hf70     1.0000 0.75034  0.35158  0.49948  Biso   1.000  Hf
  Hf71     1.0000 0.74975  0.39838  0.74975  Biso   1.000  Hf
  Hf72     1.0000 0.62491  0.50005  0.12491  Biso   1.000  Hf
  Hf73     1.0000 0.62475  0.75019  0.37469  Biso   1.000  Hf
  Hf74     1.0000 0.87365  0.74797  0.12433  Biso   1.000  Hf
  Hf75     1.0000 0.87464  0.50031  0.37518  Biso   1.000  Hf
  Hf76     1.0000 0.50181  0.64748  0.99991  Biso   1.000  Hf
  Hf77     1.0000 0.49844  0.60169  0.24930  Biso   1.000  Hf
  Hf78     1.0000 0.50298  0.85118  0.24750  Biso   1.000  Hf
  Hf79     1.0000 0.50027  0.89857  0.99851  Biso   1.000  Hf
  Hf80     1.0000 0.74801  0.64748  0.24991  Biso   1.000  Hf
  Hf81     1.0000 0.75138  0.60169  0.00051  Biso   1.000  Hf
  Hf82     1.0000 0.74684  0.85118  0.00231  Biso   1.000  Hf
  Hf83     1.0000 0.74955  0.89857  0.25131  Biso   1.000  Hf
  Hf84     1.0000 0.62491  0.50005  0.62491  Biso   1.000  Hf
  Hf85     1.0000 0.62507  0.75019  0.87513  Biso   1.000  Hf
  Hf86     1.0000 0.87512  0.75019  0.62507  Biso   1.000  Hf
  Hf87     1.0000 0.87464  0.49980  0.87464  Biso   1.000  Hf
  Hf88     1.0000 0.49948  0.64853  0.49948  Biso   1.000  Hf
  Hf89     1.0000 0.50006  0.60173  0.74975  Biso   1.000  Hf
  Hf90     1.0000 0.50124  0.85158  0.74858  Biso   1.000  Hf
  Hf91     1.0000 0.49965  0.89832  0.49965  Biso   1.000  Hf
  Hf92     1.0000 0.75033  0.64853  0.75033  Biso   1.000  Hf
  Hf93     1.0000 0.74975  0.60173  0.50006  Biso   1.000  Hf
  Hf94     1.0000 0.74858  0.85158  0.50124  Biso   1.000  Hf
  Hf95     1.0000 0.75017  0.89832  0.75017  Biso   1.000  Hf
