data_image0
_cell_length_a       10.0035
_cell_length_b       10.4099
_cell_length_c       5.02062
_cell_angle_alpha    90.0611
_cell_angle_beta     90.0333
_cell_angle_gamma    89.9279

_symmetry_space_group_name_H-M    "P 1"
_symmetry_int_tables_number       1

loop_
  _symmetry_equiv_pos_as_xyz
  'x, y, z'

loop_
  _atom_site_label
  _atom_site_occupancy
  _atom_site_fract_x
  _atom_site_fract_y
  _atom_site_fract_z
  _atom_site_thermal_displace_type
  _atom_site_B_iso_or_equiv
  _atom_site_type_symbol
  Bi1      1.0000 0.12793  0.01502  0.24548  Biso   1.000  Bi
  Hf1      1.0000 0.13582  0.23748  0.74932  Biso   1.000  Hf
  Hf2      1.0000 0.36749  0.26768  0.25280  Biso   1.000  Hf
  Hf3      1.0000 0.36618  0.48367  0.75275  Biso   1.000  Hf
  Hf4      1.0000 0.03513  0.19505  0.38742  Biso   1.000  Hf
  Hf5      1.0000 0.03468  0.06805  0.85364  Biso   1.000  Hf
  Hf6      1.0000 0.46495  0.43384  0.39137  Biso   1.000  Hf
  Hf7      1.0000 0.46461  0.31611  0.88860  Biso   1.000  Hf
  Hf8      1.0000 0.27848  0.12452  0.50764  Biso   1.000  Hf
  Hf9      1.0000 0.27353  0.13499  0.99267  Biso   1.000  Hf
  Hf10     1.0000 0.23040  0.38354  0.99997  Biso   1.000  Hf
  Hf11     1.0000 0.23005  0.36979  0.49846  Biso   1.000  Hf
  Hf12     1.0000 0.13348  0.51663  0.25224  Biso   1.000  Hf
  Hf13     1.0000 0.13395  0.73180  0.75324  Biso   1.000  Hf
  Hf14     1.0000 0.36854  0.76379  0.25160  Biso   1.000  Hf
  Hf15     1.0000 0.36900  0.98347  0.74874  Biso   1.000  Hf
  Hf16     1.0000 0.03651  0.68601  0.38855  Biso   1.000  Hf
  Hf17     1.0000 0.03531  0.56618  0.89052  Biso   1.000  Hf
  Hf18     1.0000 0.46451  0.93426  0.38672  Biso   1.000  Hf
  Hf19     1.0000 0.46721  0.81601  0.89274  Biso   1.000  Hf
  Hf20     1.0000 0.26991  0.61514  0.49972  Biso   1.000  Hf
  Hf21     1.0000 0.27053  0.63120  0.00055  Biso   1.000  Hf
  Hf22     1.0000 0.23570  0.87674  0.99111  Biso   1.000  Hf
  Hf23     1.0000 0.23753  0.86010  0.50788  Biso   1.000  Hf
  Hf24     1.0000 0.63408  0.01624  0.25322  Biso   1.000  Hf
  Hf25     1.0000 0.63385  0.23319  0.75182  Biso   1.000  Hf
  Hf26     1.0000 0.86306  0.26853  0.25114  Biso   1.000  Hf
  Hf27     1.0000 0.86645  0.48288  0.75278  Biso   1.000  Hf
  Hf28     1.0000 0.53806  0.18496  0.38618  Biso   1.000  Hf
  Hf29     1.0000 0.53885  0.06515  0.88715  Biso   1.000  Hf
  Hf30     1.0000 0.96276  0.43646  0.39045  Biso   1.000  Hf
  Hf31     1.0000 0.96439  0.31775  0.89220  Biso   1.000  Hf
  Hf32     1.0000 0.76909  0.11803  0.50233  Biso   1.000  Hf
  Hf33     1.0000 0.77121  0.13197  0.00211  Biso   1.000  Hf
  Hf34     1.0000 0.72901  0.38223  0.99979  Biso   1.000  Hf
  Hf35     1.0000 0.72915  0.36804  0.50130  Biso   1.000  Hf
  Hf36     1.0000 0.63368  0.51556  0.25315  Biso   1.000  Hf
  Hf37     1.0000 0.63362  0.73201  0.75420  Biso   1.000  Hf
  Hf38     1.0000 0.86361  0.76287  0.25169  Biso   1.000  Hf
  Hf39     1.0000 0.86050  0.98201  0.75528  Biso   1.000  Hf
  Hf40     1.0000 0.53662  0.68229  0.39321  Biso   1.000  Hf
  Hf41     1.0000 0.53511  0.56572  0.89354  Biso   1.000  Hf
  Hf42     1.0000 0.94669  0.93317  0.38655  Biso   1.000  Hf
  Hf43     1.0000 0.96554  0.81759  0.89416  Biso   1.000  Hf
  Hf44     1.0000 0.77029  0.61660  0.49972  Biso   1.000  Hf
  Hf45     1.0000 0.76977  0.63066  0.99863  Biso   1.000  Hf
  Hf46     1.0000 0.72822  0.87988  0.00384  Biso   1.000  Hf
  Hf47     1.0000 0.72628  0.86621  0.50337  Biso   1.000  Hf
