data_image0
_cell_length_a       5.14429
_cell_length_b       10.4123
_cell_length_c       10.4518
_cell_angle_alpha    87.1097
_cell_angle_beta     94.1238
_cell_angle_gamma    97.1478

_symmetry_space_group_name_H-M    "P 1"
_symmetry_int_tables_number       1

loop_
  _symmetry_equiv_pos_as_xyz
  'x, y, z'

loop_
  _atom_site_label
  _atom_site_occupancy
  _atom_site_fract_x
  _atom_site_fract_y
  _atom_site_fract_z
  _atom_site_thermal_displace_type
  _atom_site_B_iso_or_equiv
  _atom_site_type_symbol
  Hf1      1.0000 0.42762  0.97437  0.11785  Biso   1.000  Hf
  Hf2      1.0000 0.15559  0.27296  0.39237  Biso   1.000  Hf
  Hf3      1.0000 0.59899  0.29169  0.13574  Biso   1.000  Hf
  Hf4      1.0000 0.71832  0.02237  0.41070  Biso   1.000  Hf
  Hf5      1.0000 0.96998  0.16109  0.91941  Biso   1.000  Hf
  Hf6      1.0000 0.05724  0.08950  0.33706  Biso   1.000  Hf
  Hf7      1.0000 0.84760  0.34807  0.29341  Biso   1.000  Hf
  Hf8      1.0000 0.87429  0.41821  0.03470  Biso   1.000  Hf
  Hf9      1.0000 0.53813  0.11747  0.24859  Biso   1.000  Hf
  Hf10     1.0000 0.48705  0.14701  0.00738  Biso   1.000  Hf
  Hf11     1.0000 0.38104  0.39069  0.98517  Biso   1.000  Hf
  Hf12     1.0000 0.38445  0.39724  0.24949  Biso   1.000  Hf
  Hf13     1.0000 0.29074  0.97837  0.62618  Biso   1.000  Hf
  Hf14     1.0000 0.30353  0.22877  0.84332  Biso   1.000  Hf
  Hf15     1.0000 0.71926  0.26782  0.62253  Biso   1.000  Hf
  Hf16     1.0000 0.85992  0.98648  0.84843  Biso   1.000  Hf
  Hf17     1.0000 0.92945  0.17375  0.51953  Biso   1.000  Hf
  Hf18     1.0000 0.09599  0.08489  0.72722  Biso   1.000  Hf
  Hf19     1.0000 0.04856  0.33826  0.73434  Biso   1.000  Hf
  Hf20     1.0000 0.98844  0.42351  0.50474  Biso   1.000  Hf
  Hf21     1.0000 0.57379  0.13135  0.75210  Biso   1.000  Hf
  Hf22     1.0000 0.45648  0.11526  0.50747  Biso   1.000  Hf
  Hf23     1.0000 0.47429  0.36553  0.50054  Biso   1.000  Hf
  Hf24     1.0000 0.53790  0.39184  0.75159  Biso   1.000  Hf
  Hf25     1.0000 0.21843  0.51630  0.10636  Biso   1.000  Hf
  Hf26     1.0000 0.28326  0.72975  0.36313  Biso   1.000  Hf
  Hf27     1.0000 0.79339  0.74314  0.14451  Biso   1.000  Hf
  Hf28     1.0000 0.71563  0.50276  0.38179  Biso   1.000  Hf
  Hf29     1.0000 0.01969  0.65740  0.98538  Biso   1.000  Hf
  Hf30     1.0000 0.99169  0.59470  0.24129  Biso   1.000  Hf
  Hf31     1.0000 0.15047  0.83644  0.20764  Biso   1.000  Hf
  Hf32     1.0000 0.17419  0.92044  0.95824  Biso   1.000  Hf
  Hf33     1.0000 0.50787  0.63384  0.25077  Biso   1.000  Hf
  Hf34     1.0000 0.51498  0.62935  0.00897  Biso   1.000  Hf
  Hf35     1.0000 0.63611  0.86718  0.99679  Biso   1.000  Hf
  Hf36     1.0000 0.64890  0.87370  0.25961  Biso   1.000  Hf
  Hf37     1.0000 0.24060  0.49716  0.64876  Biso   1.000  Hf
  Hf38     1.0000 0.31370  0.76733  0.88127  Biso   1.000  Hf
  Hf39     1.0000 0.76024  0.74233  0.61315  Biso   1.000  Hf
  Hf40     1.0000 0.71370  0.52438  0.88498  Biso   1.000  Hf
  Hf41     1.0000 0.95601  0.67273  0.46565  Biso   1.000  Hf
  Hf42     1.0000 0.94771  0.58496  0.72483  Biso   1.000  Hf
  Hf43     1.0000 0.03317  0.83004  0.75037  Biso   1.000  Hf
  Hf44     1.0000 0.94384  0.91044  0.53002  Biso   1.000  Hf
  Hf45     1.0000 0.47815  0.63986  0.75990  Biso   1.000  Hf
  Hf46     1.0000 0.47457  0.60639  0.50507  Biso   1.000  Hf
  Hf47     1.0000 0.45484  0.85706  0.49375  Biso   1.000  Hf
  Hf48     1.0000 0.55011  0.88163  0.74174  Biso   1.000  Hf
  Bi1      1.0000 0.00919  0.12813  0.12828  Biso   1.000  Bi
