data_image0
_cell_length_a       5.07085
_cell_length_b       10.4505
_cell_length_c       10.2747
_cell_angle_alpha    86.9935
_cell_angle_beta     93.215
_cell_angle_gamma    92.5166

_symmetry_space_group_name_H-M    "P 1"
_symmetry_int_tables_number       1

loop_
  _symmetry_equiv_pos_as_xyz
  'x, y, z'

loop_
  _atom_site_label
  _atom_site_occupancy
  _atom_site_fract_x
  _atom_site_fract_y
  _atom_site_fract_z
  _atom_site_thermal_displace_type
  _atom_site_B_iso_or_equiv
  _atom_site_type_symbol
  Hf1      1.0000 0.27972  0.99547  0.10206  Biso   1.000  Hf
  Hf2      1.0000 0.23623  0.23209  0.40591  Biso   1.000  Hf
  Hf3      1.0000 0.60258  0.27008  0.15639  Biso   1.000  Hf
  Hf4      1.0000 0.73138  0.49407  0.38727  Biso   1.000  Hf
  Hf5      1.0000 0.89678  0.18444  0.27461  Biso   1.000  Hf
  Hf6      1.0000 0.07500  0.05642  0.46144  Biso   1.000  Hf
  Hf7      1.0000 0.85668  0.44742  0.21298  Biso   1.000  Hf
  Hf8      1.0000 0.94378  0.33395  0.46234  Biso   1.000  Hf
  Hf9      1.0000 0.41876  0.11136  0.25567  Biso   1.000  Hf
  Hf10     1.0000 0.56257  0.13993  0.50044  Biso   1.000  Hf
  Hf11     1.0000 0.47129  0.38753  0.50202  Biso   1.000  Hf
  Hf12     1.0000 0.37498  0.37612  0.26373  Biso   1.000  Hf
  Hf13     1.0000 0.30470  0.00674  0.62303  Biso   1.000  Hf
  Hf14     1.0000 0.34725  0.21661  0.85049  Biso   1.000  Hf
  Hf15     1.0000 0.77756  0.26683  0.62836  Biso   1.000  Hf
  Hf16     1.0000 0.76837  0.47344  0.85432  Biso   1.000  Hf
  Hf17     1.0000 0.13654  0.18063  0.66390  Biso   1.000  Hf
  Hf18     1.0000 0.12292  0.05106  0.91376  Biso   1.000  Hf
  Hf19     1.0000 0.93290  0.44881  0.67486  Biso   1.000  Hf
  Hf20     1.0000 0.98490  0.30014  0.85756  Biso   1.000  Hf
  Hf21     1.0000 0.59203  0.10786  0.74745  Biso   1.000  Hf
  Hf22     1.0000 0.59253  0.11723  0.00649  Biso   1.000  Hf
  Hf23     1.0000 0.52740  0.36948  0.97738  Biso   1.000  Hf
  Hf24     1.0000 0.48901  0.36300  0.73451  Biso   1.000  Hf
  Hf25     1.0000 0.21875  0.53470  0.14600  Biso   1.000  Hf
  Hf26     1.0000 0.27337  0.74693  0.38312  Biso   1.000  Hf
  Hf27     1.0000 0.71889  0.76488  0.13316  Biso   1.000  Hf
  Hf28     1.0000 0.74659  0.00423  0.35744  Biso   1.000  Hf
  Hf29     1.0000 0.05533  0.69033  0.20902  Biso   1.000  Hf
  Hf30     1.0000 0.07543  0.57930  0.44981  Biso   1.000  Hf
  Hf31     1.0000 0.93397  0.94518  0.18684  Biso   1.000  Hf
  Hf32     1.0000 0.94058  0.82300  0.44544  Biso   1.000  Hf
  Hf33     1.0000 0.51953  0.62700  0.26561  Biso   1.000  Hf
  Hf34     1.0000 0.54224  0.64119  0.50854  Biso   1.000  Hf
  Hf35     1.0000 0.48541  0.89179  0.49439  Biso   1.000  Hf
  Hf36     1.0000 0.47341  0.86873  0.24343  Biso   1.000  Hf
  Hf37     1.0000 0.28950  0.51583  0.62186  Biso   1.000  Hf
  Hf38     1.0000 0.27510  0.72864  0.87659  Biso   1.000  Hf
  Hf39     1.0000 0.76220  0.77056  0.62267  Biso   1.000  Hf
  Hf40     1.0000 0.76901  0.96850  0.87280  Biso   1.000  Hf
  Hf41     1.0000 0.07982  0.67857  0.70201  Biso   1.000  Hf
  Hf42     1.0000 0.05384  0.56423  0.95851  Biso   1.000  Hf
  Hf43     1.0000 0.97128  0.92501  0.70346  Biso   1.000  Hf
  Hf44     1.0000 0.96280  0.81083  0.96209  Biso   1.000  Hf
  Hf45     1.0000 0.54466  0.61158  0.76047  Biso   1.000  Hf
  Hf46     1.0000 0.50344  0.63599  0.02115  Biso   1.000  Hf
  Hf47     1.0000 0.48567  0.87555  0.99164  Biso   1.000  Hf
  Hf48     1.0000 0.49888  0.85712  0.74730  Biso   1.000  Hf
  Bi1      1.0000 0.06497  0.26079  0.06644  Biso   1.000  Bi
