data_image0
_cell_length_a       10.0583
_cell_length_b       5.05243
_cell_length_c       10.0583
_cell_angle_alpha    89.9996
_cell_angle_beta     84.6367
_cell_angle_gamma    89.9997

_symmetry_space_group_name_H-M    "P 1"
_symmetry_int_tables_number       1

loop_
  _symmetry_equiv_pos_as_xyz
  'x, y, z'

loop_
  _atom_site_label
  _atom_site_occupancy
  _atom_site_fract_x
  _atom_site_fract_y
  _atom_site_fract_z
  _atom_site_thermal_displace_type
  _atom_site_B_iso_or_equiv
  _atom_site_type_symbol
  C1       1.0000 0.12490  0.92370  0.12494  Biso   1.000  C 
  Hf1      1.0000 0.12893  0.53489  0.37956  Biso   1.000  Hf
  Hf2      1.0000 0.37952  0.53490  0.12896  Biso   1.000  Hf
  Hf3      1.0000 0.37712  0.07000  0.37715  Biso   1.000  Hf
  Hf4      1.0000 0.97661  0.31686  0.97665  Biso   1.000  Hf
  Hf5      1.0000 0.04017  0.07462  0.20968  Biso   1.000  Hf
  Hf6      1.0000 0.95542  0.62090  0.29442  Biso   1.000  Hf
  Hf7      1.0000 0.04842  0.75662  0.04846  Biso   1.000  Hf
  Hf8      1.0000 0.27320  0.31685  0.27324  Biso   1.000  Hf
  Hf9      1.0000 0.20964  0.07462  0.04020  Biso   1.000  Hf
  Hf10     1.0000 0.29438  0.62090  0.95546  Biso   1.000  Hf
  Hf11     1.0000 0.20139  0.75661  0.20142  Biso   1.000  Hf
  Hf12     1.0000 0.12490  0.01718  0.62494  Biso   1.000  Hf
  Hf13     1.0000 0.12088  0.53490  0.87032  Biso   1.000  Hf
  Hf14     1.0000 0.38337  0.48254  0.64032  Biso   1.000  Hf
  Hf15     1.0000 0.36002  0.99297  0.88981  Biso   1.000  Hf
  Hf16     1.0000 0.00353  0.23556  0.47141  Biso   1.000  Hf
  Hf17     1.0000 0.00351  0.31572  0.72449  Biso   1.000  Hf
  Hf18     1.0000 0.01022  0.82441  0.79054  Biso   1.000  Hf
  Hf19     1.0000 0.00497  0.74858  0.53286  Biso   1.000  Hf
  Hf20     1.0000 0.24626  0.23558  0.77847  Biso   1.000  Hf
  Hf21     1.0000 0.24628  0.31571  0.52539  Biso   1.000  Hf
  Hf22     1.0000 0.23958  0.82439  0.45934  Biso   1.000  Hf
  Hf23     1.0000 0.24484  0.74862  0.71702  Biso   1.000  Hf
  Hf24     1.0000 0.62490  0.01719  0.12493  Biso   1.000  Hf
  Hf25     1.0000 0.64029  0.48254  0.38341  Biso   1.000  Hf
  Hf26     1.0000 0.87028  0.53491  0.12091  Biso   1.000  Hf
  Hf27     1.0000 0.88978  0.99298  0.36005  Biso   1.000  Hf
  Hf28     1.0000 0.47137  0.23558  0.00356  Biso   1.000  Hf
  Hf29     1.0000 0.52536  0.31572  0.24631  Biso   1.000  Hf
  Hf30     1.0000 0.45930  0.82440  0.23961  Biso   1.000  Hf
  Hf31     1.0000 0.53282  0.74860  0.00500  Biso   1.000  Hf
  Hf32     1.0000 0.77844  0.23559  0.24630  Biso   1.000  Hf
  Hf33     1.0000 0.72445  0.31573  0.00355  Biso   1.000  Hf
  Hf34     1.0000 0.79051  0.82442  0.01026  Biso   1.000  Hf
  Hf35     1.0000 0.71698  0.74862  0.24488  Biso   1.000  Hf
  Hf36     1.0000 0.62490  0.96561  0.62494  Biso   1.000  Hf
  Hf37     1.0000 0.60950  0.48253  0.86646  Biso   1.000  Hf
  Hf38     1.0000 0.86643  0.48253  0.60954  Biso   1.000  Hf
  Hf39     1.0000 0.87269  0.07003  0.87273  Biso   1.000  Hf
  Hf40     1.0000 0.50310  0.21542  0.50313  Biso   1.000  Hf
  Hf41     1.0000 0.49992  0.24544  0.74992  Biso   1.000  Hf
  Hf42     1.0000 0.49064  0.75103  0.75920  Biso   1.000  Hf
  Hf43     1.0000 0.50698  0.71415  0.50701  Biso   1.000  Hf
  Hf44     1.0000 0.74670  0.21540  0.74674  Biso   1.000  Hf
  Hf45     1.0000 0.74989  0.24543  0.49995  Biso   1.000  Hf
  Hf46     1.0000 0.75916  0.75102  0.49067  Biso   1.000  Hf
  Hf47     1.0000 0.74282  0.71413  0.74285  Biso   1.000  Hf
