data_image0
_cell_length_a       5.00167
_cell_length_b       10.3791
_cell_length_c       10.0442
_cell_angle_alpha    90.3457
_cell_angle_beta     89.2584
_cell_angle_gamma    90.8281

_symmetry_space_group_name_H-M    "P 1"
_symmetry_int_tables_number       1

loop_
  _symmetry_equiv_pos_as_xyz
  'x, y, z'

loop_
  _atom_site_label
  _atom_site_occupancy
  _atom_site_fract_x
  _atom_site_fract_y
  _atom_site_fract_z
  _atom_site_thermal_displace_type
  _atom_site_B_iso_or_equiv
  _atom_site_type_symbol
  Hf1      1.0000 0.28555  0.02380  0.12225  Biso   1.000  Hf
  Hf2      1.0000 0.27472  0.22631  0.39432  Biso   1.000  Hf
  Hf3      1.0000 0.74899  0.27189  0.10351  Biso   1.000  Hf
  Hf4      1.0000 0.75157  0.48989  0.38262  Biso   1.000  Hf
  Hf5      1.0000 0.04075  0.17648  0.21672  Biso   1.000  Hf
  Hf6      1.0000 0.07590  0.06452  0.45404  Biso   1.000  Hf
  Hf7      1.0000 0.88200  0.43856  0.19876  Biso   1.000  Hf
  Hf8      1.0000 0.93475  0.31845  0.44930  Biso   1.000  Hf
  Hf9      1.0000 0.53238  0.11580  0.25949  Biso   1.000  Hf
  Hf10     1.0000 0.55414  0.13256  0.50841  Biso   1.000  Hf
  Hf11     1.0000 0.46179  0.38475  0.48875  Biso   1.000  Hf
  Hf12     1.0000 0.36244  0.33603  0.21564  Biso   1.000  Hf
  Hf13     1.0000 0.28207  0.01772  0.63279  Biso   1.000  Hf
  Hf14     1.0000 0.27603  0.23523  0.88697  Biso   1.000  Hf
  Hf15     1.0000 0.74658  0.26697  0.63348  Biso   1.000  Hf
  Hf16     1.0000 0.73152  0.49186  0.86578  Biso   1.000  Hf
  Hf17     1.0000 0.08264  0.18536  0.69491  Biso   1.000  Hf
  Hf18     1.0000 0.09413  0.06390  0.94265  Biso   1.000  Hf
  Hf19     1.0000 0.91993  0.44299  0.68375  Biso   1.000  Hf
  Hf20     1.0000 0.90703  0.31670  0.91189  Biso   1.000  Hf
  Hf21     1.0000 0.54589  0.12033  0.75648  Biso   1.000  Hf
  Hf22     1.0000 0.59142  0.12053  0.99723  Biso   1.000  Hf
  Hf23     1.0000 0.47777  0.39204  0.99244  Biso   1.000  Hf
  Hf24     1.0000 0.45043  0.37123  0.74497  Biso   1.000  Hf
  Hf25     1.0000 0.24643  0.51485  0.12169  Biso   1.000  Hf
  Hf26     1.0000 0.27560  0.73531  0.37560  Biso   1.000  Hf
  Hf27     1.0000 0.73540  0.76520  0.12603  Biso   1.000  Hf
  Hf28     1.0000 0.74087  0.98354  0.37406  Biso   1.000  Hf
  Hf29     1.0000 0.06058  0.67976  0.19994  Biso   1.000  Hf
  Hf30     1.0000 0.07742  0.57004  0.44972  Biso   1.000  Hf
  Hf31     1.0000 0.94179  0.93259  0.19492  Biso   1.000  Hf
  Hf32     1.0000 0.93433  0.81583  0.44428  Biso   1.000  Hf
  Hf33     1.0000 0.51808  0.60462  0.25285  Biso   1.000  Hf
  Hf34     1.0000 0.54494  0.63554  0.50001  Biso   1.000  Hf
  Hf35     1.0000 0.46684  0.88475  0.50060  Biso   1.000  Hf
  Hf36     1.0000 0.47259  0.86330  0.25007  Biso   1.000  Hf
  Hf37     1.0000 0.27445  0.51765  0.62505  Biso   1.000  Hf
  Hf38     1.0000 0.27235  0.73637  0.87758  Biso   1.000  Hf
  Hf39     1.0000 0.74263  0.76879  0.62496  Biso   1.000  Hf
  Hf40     1.0000 0.74415  0.98074  0.87611  Biso   1.000  Hf
  Hf41     1.0000 0.07235  0.68420  0.69809  Biso   1.000  Hf
  Hf42     1.0000 0.06682  0.56627  0.94630  Biso   1.000  Hf
  Hf43     1.0000 0.93883  0.93339  0.69576  Biso   1.000  Hf
  Hf44     1.0000 0.93139  0.81471  0.94692  Biso   1.000  Hf
  Hf45     1.0000 0.53785  0.62293  0.74833  Biso   1.000  Hf
  Hf46     1.0000 0.53157  0.63496  0.00110  Biso   1.000  Hf
  Hf47     1.0000 0.46323  0.88124  0.00141  Biso   1.000  Hf
  Hf48     1.0000 0.46807  0.86887  0.75107  Biso   1.000  Hf
  C1       1.0000 0.20157  0.25182  0.12717  Biso   1.000  C 
