data_image0
_cell_length_a       10.0583
_cell_length_b       10.0583
_cell_length_c       5.05243
_cell_angle_alpha    89.9996
_cell_angle_beta     89.9995
_cell_angle_gamma    84.6364

_symmetry_space_group_name_H-M    "P 1"
_symmetry_int_tables_number       1

loop_
  _symmetry_equiv_pos_as_xyz
  'x, y, z'

loop_
  _atom_site_label
  _atom_site_occupancy
  _atom_site_fract_x
  _atom_site_fract_y
  _atom_site_fract_z
  _atom_site_thermal_displace_type
  _atom_site_B_iso_or_equiv
  _atom_site_type_symbol
  C1       1.0000 0.12417  0.00012  0.17343  Biso   1.000  C 
  Hf1      1.0000 0.12820  0.25475  0.78464  Biso   1.000  Hf
  Hf2      1.0000 0.37638  0.25234  0.31976  Biso   1.000  Hf
  Hf3      1.0000 0.37879  0.00415  0.78465  Biso   1.000  Hf
  Hf4      1.0000 0.95469  0.16961  0.87064  Biso   1.000  Hf
  Hf5      1.0000 0.03943  0.08486  0.32435  Biso   1.000  Hf
  Hf6      1.0000 0.00281  0.34659  0.48532  Biso   1.000  Hf
  Hf7      1.0000 0.00423  0.40805  0.99835  Biso   1.000  Hf
  Hf8      1.0000 0.27247  0.14842  0.56660  Biso   1.000  Hf
  Hf9      1.0000 0.20065  0.07661  0.00635  Biso   1.000  Hf
  Hf10     1.0000 0.23884  0.33452  0.07415  Biso   1.000  Hf
  Hf11     1.0000 0.24556  0.40058  0.56546  Biso   1.000  Hf
  Hf12     1.0000 0.12418  0.50013  0.26692  Biso   1.000  Hf
  Hf13     1.0000 0.12015  0.74550  0.78464  Biso   1.000  Hf
  Hf14     1.0000 0.35929  0.76502  0.24273  Biso   1.000  Hf
  Hf15     1.0000 0.38265  0.51552  0.73227  Biso   1.000  Hf
  Hf16     1.0000 0.00949  0.66573  0.07413  Biso   1.000  Hf
  Hf17     1.0000 0.00279  0.59968  0.56545  Biso   1.000  Hf
  Hf18     1.0000 0.97587  0.85183  0.56660  Biso   1.000  Hf
  Hf19     1.0000 0.04769  0.92364  0.00635  Biso   1.000  Hf
  Hf20     1.0000 0.24554  0.65366  0.48531  Biso   1.000  Hf
  Hf21     1.0000 0.24410  0.59219  0.99832  Biso   1.000  Hf
  Hf22     1.0000 0.29366  0.83064  0.87065  Biso   1.000  Hf
  Hf23     1.0000 0.20890  0.91539  0.32435  Biso   1.000  Hf
  Hf24     1.0000 0.62417  0.00013  0.26693  Biso   1.000  Hf
  Hf25     1.0000 0.63957  0.25861  0.73227  Biso   1.000  Hf
  Hf26     1.0000 0.88905  0.23525  0.24272  Biso   1.000  Hf
  Hf27     1.0000 0.86955  0.99611  0.78464  Biso   1.000  Hf
  Hf28     1.0000 0.45857  0.11481  0.07415  Biso   1.000  Hf
  Hf29     1.0000 0.52462  0.12152  0.56546  Biso   1.000  Hf
  Hf30     1.0000 0.50236  0.37833  0.46514  Biso   1.000  Hf
  Hf31     1.0000 0.50625  0.38220  0.96387  Biso   1.000  Hf
  Hf32     1.0000 0.77770  0.12150  0.48533  Biso   1.000  Hf
  Hf33     1.0000 0.71625  0.12008  0.99835  Biso   1.000  Hf
  Hf34     1.0000 0.75843  0.36587  0.00076  Biso   1.000  Hf
  Hf35     1.0000 0.74915  0.37516  0.49517  Biso   1.000  Hf
  Hf36     1.0000 0.62417  0.50013  0.21535  Biso   1.000  Hf
  Hf37     1.0000 0.60878  0.74166  0.73227  Biso   1.000  Hf
  Hf38     1.0000 0.87196  0.74792  0.31975  Biso   1.000  Hf
  Hf39     1.0000 0.86570  0.48474  0.73228  Biso   1.000  Hf
  Hf40     1.0000 0.48991  0.63439  0.00076  Biso   1.000  Hf
  Hf41     1.0000 0.49919  0.62512  0.49517  Biso   1.000  Hf
  Hf42     1.0000 0.47064  0.87877  0.48532  Biso   1.000  Hf
  Hf43     1.0000 0.53209  0.88019  0.99836  Biso   1.000  Hf
  Hf44     1.0000 0.74597  0.62195  0.46516  Biso   1.000  Hf
  Hf45     1.0000 0.74210  0.61806  0.96388  Biso   1.000  Hf
  Hf46     1.0000 0.78978  0.88546  0.07415  Biso   1.000  Hf
  Hf47     1.0000 0.72372  0.87876  0.56546  Biso   1.000  Hf
