data_image0
_cell_length_a       9.9802
_cell_length_b       5.19908
_cell_length_c       10.0487
_cell_angle_alpha    90.0128
_cell_angle_beta     91.0614
_cell_angle_gamma    90.9315

_symmetry_space_group_name_H-M    "P 1"
_symmetry_int_tables_number       1

loop_
  _symmetry_equiv_pos_as_xyz
  'x, y, z'

loop_
  _atom_site_label
  _atom_site_occupancy
  _atom_site_fract_x
  _atom_site_fract_y
  _atom_site_fract_z
  _atom_site_thermal_displace_type
  _atom_site_B_iso_or_equiv
  _atom_site_type_symbol
  Hf1      1.0000 0.14971  0.01530  0.10848  Biso   1.000  Hf
  Hf2      1.0000 0.12827  0.46249  0.34510  Biso   1.000  Hf
  Hf3      1.0000 0.36464  0.52008  0.10491  Biso   1.000  Hf
  Hf4      1.0000 0.37181  0.96365  0.35731  Biso   1.000  Hf
  Hf5      1.0000 0.01123  0.38439  0.00353  Biso   1.000  Hf
  Hf6      1.0000 0.03957  0.11333  0.28683  Biso   1.000  Hf
  Hf7      1.0000 0.94693  0.63413  0.31948  Biso   1.000  Hf
  Hf8      1.0000 0.96673  0.88508  0.04428  Biso   1.000  Hf
  Hf9      1.0000 0.28934  0.23836  0.23140  Biso   1.000  Hf
  Hf10     1.0000 0.26468  0.23002  0.97336  Biso   1.000  Hf
  Hf11     1.0000 0.22852  0.72087  0.97675  Biso   1.000  Hf
  Hf12     1.0000 0.23451  0.75059  0.23038  Biso   1.000  Hf
  Hf13     1.0000 0.13755  0.03465  0.59869  Biso   1.000  Hf
  Hf14     1.0000 0.14349  0.46619  0.83523  Biso   1.000  Hf
  Hf15     1.0000 0.36793  0.53430  0.59885  Biso   1.000  Hf
  Hf16     1.0000 0.37123  0.96300  0.85408  Biso   1.000  Hf
  Hf17     1.0000 0.03892  0.37330  0.53652  Biso   1.000  Hf
  Hf18     1.0000 0.03983  0.13414  0.78029  Biso   1.000  Hf
  Hf19     1.0000 0.97112  0.64321  0.78521  Biso   1.000  Hf
  Hf20     1.0000 0.96088  0.88220  0.54410  Biso   1.000  Hf
  Hf21     1.0000 0.27829  0.26008  0.72367  Biso   1.000  Hf
  Hf22     1.0000 0.26900  0.24043  0.47445  Biso   1.000  Hf
  Hf23     1.0000 0.22811  0.73625  0.47587  Biso   1.000  Hf
  Hf24     1.0000 0.23451  0.76470  0.72462  Biso   1.000  Hf
  Hf25     1.0000 0.63300  0.03993  0.10591  Biso   1.000  Hf
  Hf26     1.0000 0.63401  0.46899  0.35972  Biso   1.000  Hf
  Hf27     1.0000 0.85915  0.55749  0.12285  Biso   1.000  Hf
  Hf28     1.0000 0.86273  0.97824  0.36442  Biso   1.000  Hf
  Hf29     1.0000 0.53425  0.36975  0.03695  Biso   1.000  Hf
  Hf30     1.0000 0.54302  0.12863  0.29151  Biso   1.000  Hf
  Hf31     1.0000 0.46558  0.62883  0.28820  Biso   1.000  Hf
  Hf32     1.0000 0.46012  0.86817  0.03899  Biso   1.000  Hf
  Hf33     1.0000 0.77073  0.27101  0.23605  Biso   1.000  Hf
  Hf34     1.0000 0.76826  0.24185  0.98585  Biso   1.000  Hf
  Hf35     1.0000 0.72872  0.74877  0.98447  Biso   1.000  Hf
  Hf36     1.0000 0.72631  0.77453  0.23535  Biso   1.000  Hf
  Hf37     1.0000 0.63740  0.03668  0.61087  Biso   1.000  Hf
  Hf38     1.0000 0.63853  0.47216  0.85794  Biso   1.000  Hf
  Hf39     1.0000 0.87097  0.54078  0.60640  Biso   1.000  Hf
  Hf40     1.0000 0.87087  0.97551  0.86004  Biso   1.000  Hf
  Hf41     1.0000 0.53681  0.36866  0.53855  Biso   1.000  Hf
  Hf42     1.0000 0.53988  0.13216  0.79030  Biso   1.000  Hf
  Hf43     1.0000 0.46624  0.63115  0.78686  Biso   1.000  Hf
  Hf44     1.0000 0.46479  0.87258  0.54064  Biso   1.000  Hf
  Hf45     1.0000 0.77415  0.27347  0.73619  Biso   1.000  Hf
  Hf46     1.0000 0.76991  0.24293  0.48767  Biso   1.000  Hf
  Hf47     1.0000 0.72630  0.74387  0.48724  Biso   1.000  Hf
  Hf48     1.0000 0.73462  0.77039  0.73591  Biso   1.000  Hf
  C1       1.0000 0.06737  0.41802  0.11826  Biso   1.000  C 
