data_image0
_cell_length_a       4.9932
_cell_length_b       10.3499
_cell_length_c       9.99891
_cell_angle_alpha    89.9154
_cell_angle_beta     89.1475
_cell_angle_gamma    90.1321

_symmetry_space_group_name_H-M    "P 1"
_symmetry_int_tables_number       1

loop_
  _symmetry_equiv_pos_as_xyz
  'x, y, z'

loop_
  _atom_site_label
  _atom_site_occupancy
  _atom_site_fract_x
  _atom_site_fract_y
  _atom_site_fract_z
  _atom_site_thermal_displace_type
  _atom_site_B_iso_or_equiv
  _atom_site_type_symbol
  C1       1.0000 0.04378  0.05874  0.11139  Biso   1.000  C 
  Hf1      1.0000 0.28927  0.22924  0.37874  Biso   1.000  Hf
  Hf2      1.0000 0.70225  0.27067  0.12144  Biso   1.000  Hf
  Hf3      1.0000 0.74164  0.48185  0.37631  Biso   1.000  Hf
  Hf4      1.0000 0.08774  0.16813  0.17144  Biso   1.000  Hf
  Hf5      1.0000 0.07550  0.06865  0.44493  Biso   1.000  Hf
  Hf6      1.0000 0.92467  0.42644  0.19561  Biso   1.000  Hf
  Hf7      1.0000 0.93986  0.31419  0.44621  Biso   1.000  Hf
  Hf8      1.0000 0.58762  0.13534  0.26082  Biso   1.000  Hf
  Hf9      1.0000 0.54065  0.13014  0.50554  Biso   1.000  Hf
  Hf10     1.0000 0.46755  0.37896  0.49959  Biso   1.000  Hf
  Hf11     1.0000 0.43686  0.36970  0.24826  Biso   1.000  Hf
  Hf12     1.0000 0.25885  0.01158  0.62577  Biso   1.000  Hf
  Hf13     1.0000 0.27581  0.23411  0.87790  Biso   1.000  Hf
  Hf14     1.0000 0.74025  0.26294  0.62728  Biso   1.000  Hf
  Hf15     1.0000 0.73838  0.48253  0.87353  Biso   1.000  Hf
  Hf16     1.0000 0.05773  0.17608  0.70943  Biso   1.000  Hf
  Hf17     1.0000 0.05229  0.06123  0.98197  Biso   1.000  Hf
  Hf18     1.0000 0.93479  0.43146  0.69294  Biso   1.000  Hf
  Hf19     1.0000 0.93278  0.31731  0.94453  Biso   1.000  Hf
  Hf20     1.0000 0.52261  0.11169  0.74907  Biso   1.000  Hf
  Hf21     1.0000 0.55028  0.13730  0.99079  Biso   1.000  Hf
  Hf22     1.0000 0.45496  0.38384  0.99956  Biso   1.000  Hf
  Hf23     1.0000 0.46365  0.36387  0.75023  Biso   1.000  Hf
  Hf24     1.0000 0.26134  0.51820  0.12884  Biso   1.000  Hf
  Hf25     1.0000 0.28758  0.73710  0.37298  Biso   1.000  Hf
  Hf26     1.0000 0.73255  0.75928  0.11451  Biso   1.000  Hf
  Hf27     1.0000 0.73028  0.98778  0.37665  Biso   1.000  Hf
  Hf28     1.0000 0.08035  0.69211  0.19460  Biso   1.000  Hf
  Hf29     1.0000 0.08082  0.56590  0.44159  Biso   1.000  Hf
  Hf30     1.0000 0.96543  0.96052  0.17661  Biso   1.000  Hf
  Hf31     1.0000 0.95174  0.82256  0.44790  Biso   1.000  Hf
  Hf32     1.0000 0.54506  0.61014  0.24684  Biso   1.000  Hf
  Hf33     1.0000 0.55051  0.63268  0.49741  Biso   1.000  Hf
  Hf34     1.0000 0.46839  0.88346  0.50117  Biso   1.000  Hf
  Hf35     1.0000 0.53445  0.85530  0.25856  Biso   1.000  Hf
  Hf36     1.0000 0.27261  0.51752  0.62303  Biso   1.000  Hf
  Hf37     1.0000 0.27083  0.73323  0.87819  Biso   1.000  Hf
  Hf38     1.0000 0.74238  0.76699  0.62434  Biso   1.000  Hf
  Hf39     1.0000 0.69864  0.97779  0.88016  Biso   1.000  Hf
  Hf40     1.0000 0.07524  0.68163  0.69327  Biso   1.000  Hf
  Hf41     1.0000 0.06507  0.56791  0.94953  Biso   1.000  Hf
  Hf42     1.0000 0.92264  0.93310  0.70057  Biso   1.000  Hf
  Hf43     1.0000 0.93039  0.81752  0.93886  Biso   1.000  Hf
  Hf44     1.0000 0.54403  0.61571  0.74810  Biso   1.000  Hf
  Hf45     1.0000 0.53994  0.62575  0.99885  Biso   1.000  Hf
  Hf46     1.0000 0.46172  0.86996  0.99742  Biso   1.000  Hf
  Hf47     1.0000 0.45292  0.86605  0.74776  Biso   1.000  Hf
