data_image0
_cell_length_a       10.0113
_cell_length_b       10.4023
_cell_length_c       10.0677
_cell_angle_alpha    89.623
_cell_angle_beta     89.8386
_cell_angle_gamma    89.9239

_symmetry_space_group_name_H-M    "P 1"
_symmetry_int_tables_number       1

loop_
  _symmetry_equiv_pos_as_xyz
  'x, y, z'

loop_
  _atom_site_label
  _atom_site_occupancy
  _atom_site_fract_x
  _atom_site_fract_y
  _atom_site_fract_z
  _atom_site_thermal_displace_type
  _atom_site_B_iso_or_equiv
  _atom_site_type_symbol
  Hf1      1.0000 0.13203  0.00240  0.12095  Biso   1.000  Hf
  Hf2      1.0000 0.13328  0.22795  0.39334  Biso   1.000  Hf
  Hf3      1.0000 0.37742  0.27180  0.11848  Biso   1.000  Hf
  Hf4      1.0000 0.36577  0.48365  0.37541  Biso   1.000  Hf
  Hf5      1.0000 0.99132  0.15737  0.24235  Biso   1.000  Hf
  Hf6      1.0000 0.03774  0.06196  0.46097  Biso   1.000  Hf
  Hf7      1.0000 0.46491  0.43755  0.19613  Biso   1.000  Hf
  Hf8      1.0000 0.46661  0.31962  0.44870  Biso   1.000  Hf
  Hf9      1.0000 0.24999  0.12018  0.24475  Biso   1.000  Hf
  Hf10     1.0000 0.27621  0.13088  0.50014  Biso   1.000  Hf
  Hf11     1.0000 0.23177  0.38144  0.50224  Biso   1.000  Hf
  Hf12     1.0000 0.23059  0.36826  0.25491  Biso   1.000  Hf
  Hf13     1.0000 0.13765  0.00767  0.62763  Biso   1.000  Hf
  Hf14     1.0000 0.13029  0.23084  0.85126  Biso   1.000  Hf
  Hf15     1.0000 0.37302  0.26737  0.62539  Biso   1.000  Hf
  Hf16     1.0000 0.36941  0.48785  0.87295  Biso   1.000  Hf
  Hf17     1.0000 0.03627  0.17831  0.68579  Biso   1.000  Hf
  Hf18     1.0000 0.03355  0.06569  0.94616  Biso   1.000  Hf
  Hf19     1.0000 0.46866  0.43412  0.69403  Biso   1.000  Hf
  Hf20     1.0000 0.46976  0.31988  0.94020  Biso   1.000  Hf
  Hf21     1.0000 0.27150  0.11426  0.74556  Biso   1.000  Hf
  Hf22     1.0000 0.26497  0.13988  0.99520  Biso   1.000  Hf
  Hf23     1.0000 0.23878  0.39743  0.99977  Biso   1.000  Hf
  Hf24     1.0000 0.23651  0.36701  0.74813  Biso   1.000  Hf
  Hf25     1.0000 0.13704  0.53152  0.12660  Biso   1.000  Hf
  Hf26     1.0000 0.13469  0.73443  0.37804  Biso   1.000  Hf
  Hf27     1.0000 0.36957  0.76635  0.12399  Biso   1.000  Hf
  Hf28     1.0000 0.36497  0.98719  0.37095  Biso   1.000  Hf
  Hf29     1.0000 0.03195  0.68415  0.20182  Biso   1.000  Hf
  Hf30     1.0000 0.03592  0.56734  0.44667  Biso   1.000  Hf
  Hf31     1.0000 0.45917  0.93562  0.19269  Biso   1.000  Hf
  Hf32     1.0000 0.46695  0.82024  0.44368  Biso   1.000  Hf
  Hf33     1.0000 0.27482  0.62178  0.24990  Biso   1.000  Hf
  Hf34     1.0000 0.27102  0.63263  0.49960  Biso   1.000  Hf
  Hf35     1.0000 0.23375  0.88264  0.49729  Biso   1.000  Hf
  Hf36     1.0000 0.22990  0.86473  0.24775  Biso   1.000  Hf
  Hf37     1.0000 0.13482  0.51608  0.62506  Biso   1.000  Hf
  Hf38     1.0000 0.13214  0.73448  0.87130  Biso   1.000  Hf
  Hf39     1.0000 0.37103  0.76612  0.62289  Biso   1.000  Hf
  Hf40     1.0000 0.36829  0.98511  0.87483  Biso   1.000  Hf
  Hf41     1.0000 0.03612  0.68216  0.69297  Biso   1.000  Hf
  Hf42     1.0000 0.03455  0.56898  0.94753  Biso   1.000  Hf
  Hf43     1.0000 0.46852  0.93293  0.69629  Biso   1.000  Hf
  Hf44     1.0000 0.46913  0.81961  0.94564  Biso   1.000  Hf
  Hf45     1.0000 0.27008  0.61603  0.74754  Biso   1.000  Hf
  Hf46     1.0000 0.26948  0.64079  0.99711  Biso   1.000  Hf
  Hf47     1.0000 0.23347  0.88339  0.99616  Biso   1.000  Hf
  Hf48     1.0000 0.23615  0.86355  0.74833  Biso   1.000  Hf
  Hf49     1.0000 0.62970  0.01251  0.12345  Biso   1.000  Hf
  Hf50     1.0000 0.63007  0.23130  0.37766  Biso   1.000  Hf
  Hf51     1.0000 0.84402  0.26201  0.12899  Biso   1.000  Hf
  Hf52     1.0000 0.86992  0.48190  0.37234  Biso   1.000  Hf
  Hf53     1.0000 0.52757  0.17816  0.20417  Biso   1.000  Hf
  Hf54     1.0000 0.53230  0.06658  0.44930  Biso   1.000  Hf
  Hf55     1.0000 0.96791  0.42468  0.19189  Biso   1.000  Hf
  Hf56     1.0000 0.96835  0.32142  0.45422  Biso   1.000  Hf
  Hf57     1.0000 0.75103  0.11150  0.25004  Biso   1.000  Hf
  Hf58     1.0000 0.77131  0.13673  0.49670  Biso   1.000  Hf
  Hf59     1.0000 0.73374  0.38507  0.50027  Biso   1.000  Hf
  Hf60     1.0000 0.72311  0.37002  0.25375  Biso   1.000  Hf
  Hf61     1.0000 0.63728  0.01430  0.62258  Biso   1.000  Hf
  Hf62     1.0000 0.63629  0.23213  0.87317  Biso   1.000  Hf
  Hf63     1.0000 0.86324  0.26767  0.62504  Biso   1.000  Hf
  Hf64     1.0000 0.86834  0.48132  0.87769  Biso   1.000  Hf
  Hf65     1.0000 0.53935  0.18260  0.69541  Biso   1.000  Hf
  Hf66     1.0000 0.53199  0.07069  0.94743  Biso   1.000  Hf
  Hf67     1.0000 0.97154  0.42822  0.70314  Biso   1.000  Hf
  Hf68     1.0000 0.96449  0.31049  0.94514  Biso   1.000  Hf
  Hf69     1.0000 0.77353  0.11573  0.74699  Biso   1.000  Hf
  Hf70     1.0000 0.76940  0.12756  0.99736  Biso   1.000  Hf
  Hf71     1.0000 0.72686  0.38303  0.99912  Biso   1.000  Hf
  Hf72     1.0000 0.73191  0.36785  0.74980  Biso   1.000  Hf
  Hf73     1.0000 0.63355  0.51882  0.12625  Biso   1.000  Hf
  Hf74     1.0000 0.63632  0.73609  0.37577  Biso   1.000  Hf
  Hf75     1.0000 0.86247  0.76322  0.12522  Biso   1.000  Hf
  Hf76     1.0000 0.87681  0.99445  0.36431  Biso   1.000  Hf
  Hf77     1.0000 0.53861  0.68668  0.19486  Biso   1.000  Hf
  Hf78     1.0000 0.53557  0.56904  0.44519  Biso   1.000  Hf
  Hf79     1.0000 0.96211  0.92657  0.19008  Biso   1.000  Hf
  Hf80     1.0000 0.96814  0.82107  0.44457  Biso   1.000  Hf
  Hf81     1.0000 0.77097  0.61565  0.24844  Biso   1.000  Hf
  Hf82     1.0000 0.77199  0.63462  0.49745  Biso   1.000  Hf
  Hf83     1.0000 0.73535  0.88730  0.49552  Biso   1.000  Hf
  Hf84     1.0000 0.72953  0.86590  0.24674  Biso   1.000  Hf
  Hf85     1.0000 0.63682  0.51762  0.62355  Biso   1.000  Hf
  Hf86     1.0000 0.63608  0.73333  0.87396  Biso   1.000  Hf
  Hf87     1.0000 0.86778  0.76809  0.62138  Biso   1.000  Hf
  Hf88     1.0000 0.86659  0.98134  0.87599  Biso   1.000  Hf
  Hf89     1.0000 0.53744  0.68325  0.69552  Biso   1.000  Hf
  Hf90     1.0000 0.53449  0.57033  0.94780  Biso   1.000  Hf
  Hf91     1.0000 0.97077  0.92789  0.70229  Biso   1.000  Hf
  Hf92     1.0000 0.96694  0.81570  0.94878  Biso   1.000  Hf
  Hf93     1.0000 0.77298  0.61547  0.74840  Biso   1.000  Hf
  Hf94     1.0000 0.77021  0.63109  0.99793  Biso   1.000  Hf
  Hf95     1.0000 0.72956  0.88003  0.99766  Biso   1.000  Hf
  Hf96     1.0000 0.73257  0.86596  0.74677  Biso   1.000  Hf
  Ca1      1.0000 0.10813  0.26804  0.11237  Biso   1.000  Ca
