data_image0
_cell_length_a       10.0338
_cell_length_b       5.16672
_cell_length_c       10.0845
_cell_angle_alpha    90.141
_cell_angle_beta     90.2829
_cell_angle_gamma    90.0239

_symmetry_space_group_name_H-M    "P 1"
_symmetry_int_tables_number       1

loop_
  _symmetry_equiv_pos_as_xyz
  'x, y, z'

loop_
  _atom_site_label
  _atom_site_occupancy
  _atom_site_fract_x
  _atom_site_fract_y
  _atom_site_fract_z
  _atom_site_thermal_displace_type
  _atom_site_B_iso_or_equiv
  _atom_site_type_symbol
  Ca1      1.0000 0.13143  0.02647  0.12158  Biso   1.000  Ca
  Hf1      1.0000 0.13382  0.03392  0.62605  Biso   1.000  Hf
  Hf2      1.0000 0.63348  0.02905  0.12419  Biso   1.000  Hf
  Hf3      1.0000 0.63233  0.03096  0.62467  Biso   1.000  Hf
  Hf4      1.0000 0.13692  0.46787  0.37584  Biso   1.000  Hf
  Hf5      1.0000 0.13970  0.46781  0.87519  Biso   1.000  Hf
  Hf6      1.0000 0.63153  0.46528  0.37602  Biso   1.000  Hf
  Hf7      1.0000 0.63589  0.46516  0.87415  Biso   1.000  Hf
  Hf8      1.0000 0.36276  0.52822  0.12584  Biso   1.000  Hf
  Hf9      1.0000 0.36596  0.53338  0.62521  Biso   1.000  Hf
  Hf10     1.0000 0.86151  0.53255  0.12731  Biso   1.000  Hf
  Hf11     1.0000 0.86619  0.53184  0.62419  Biso   1.000  Hf
  Hf12     1.0000 0.36194  0.96766  0.37327  Biso   1.000  Hf
  Hf13     1.0000 0.36498  0.96481  0.87688  Biso   1.000  Hf
  Hf14     1.0000 0.86424  0.96623  0.37779  Biso   1.000  Hf
  Hf15     1.0000 0.86458  0.96586  0.87358  Biso   1.000  Hf
  Hf16     1.0000 0.02887  0.39198  0.20471  Biso   1.000  Hf
  Hf17     1.0000 0.03841  0.37585  0.68884  Biso   1.000  Hf
  Hf18     1.0000 0.53706  0.36581  0.19359  Biso   1.000  Hf
  Hf19     1.0000 0.53548  0.36585  0.69473  Biso   1.000  Hf
  Hf20     1.0000 0.03403  0.13187  0.44575  Biso   1.000  Hf
  Hf21     1.0000 0.03024  0.14931  0.92605  Biso   1.000  Hf
  Hf22     1.0000 0.53390  0.13044  0.44523  Biso   1.000  Hf
  Hf23     1.0000 0.53731  0.13111  0.94346  Biso   1.000  Hf
  Hf24     1.0000 0.46517  0.86834  0.19489  Biso   1.000  Hf
  Hf25     1.0000 0.46563  0.86547  0.69595  Biso   1.000  Hf
  Hf26     1.0000 0.94819  0.86475  0.20138  Biso   1.000  Hf
  Hf27     1.0000 0.96325  0.86945  0.69315  Biso   1.000  Hf
  Hf28     1.0000 0.46555  0.63266  0.44776  Biso   1.000  Hf
  Hf29     1.0000 0.47285  0.63662  0.94653  Biso   1.000  Hf
  Hf30     1.0000 0.96521  0.63495  0.44780  Biso   1.000  Hf
  Hf31     1.0000 0.96974  0.64115  0.94843  Biso   1.000  Hf
  Hf32     1.0000 0.27940  0.24687  0.25460  Biso   1.000  Hf
  Hf33     1.0000 0.27157  0.23549  0.74772  Biso   1.000  Hf
  Hf34     1.0000 0.76784  0.23163  0.24916  Biso   1.000  Hf
  Hf35     1.0000 0.77083  0.23308  0.74689  Biso   1.000  Hf
  Hf36     1.0000 0.26952  0.26315  0.50133  Biso   1.000  Hf
  Hf37     1.0000 0.27842  0.26484  0.99307  Biso   1.000  Hf
  Hf38     1.0000 0.76802  0.26689  0.49870  Biso   1.000  Hf
  Hf39     1.0000 0.77088  0.26308  0.99769  Biso   1.000  Hf
  Hf40     1.0000 0.22967  0.76690  0.50048  Biso   1.000  Hf
  Hf41     1.0000 0.23866  0.74790  0.99361  Biso   1.000  Hf
  Hf42     1.0000 0.72914  0.76431  0.49948  Biso   1.000  Hf
  Hf43     1.0000 0.73094  0.76340  0.99858  Biso   1.000  Hf
  Hf44     1.0000 0.23743  0.72294  0.25500  Biso   1.000  Hf
  Hf45     1.0000 0.23024  0.73770  0.74688  Biso   1.000  Hf
  Hf46     1.0000 0.72131  0.73148  0.24985  Biso   1.000  Hf
  Hf47     1.0000 0.73016  0.73258  0.74823  Biso   1.000  Hf
