data_image0
_cell_length_a       10.0639
_cell_length_b       10.1973
_cell_length_c       4.99592
_cell_angle_alpha    90.0001
_cell_angle_beta     89.9996
_cell_angle_gamma    89.9986

_symmetry_space_group_name_H-M    "P 1"
_symmetry_int_tables_number       1

loop_
  _symmetry_equiv_pos_as_xyz
  'x, y, z'

loop_
  _atom_site_label
  _atom_site_occupancy
  _atom_site_fract_x
  _atom_site_fract_y
  _atom_site_fract_z
  _atom_site_thermal_displace_type
  _atom_site_B_iso_or_equiv
  _atom_site_type_symbol
  Ca1      1.0000 0.12518  0.99985  0.25127  Biso   1.000  Ca
  Hf1      1.0000 0.12517  0.49985  0.25128  Biso   1.000  Hf
  Hf2      1.0000 0.62518  0.99984  0.25129  Biso   1.000  Hf
  Hf3      1.0000 0.62518  0.49984  0.25127  Biso   1.000  Hf
  Hf4      1.0000 0.12518  0.25077  0.75128  Biso   1.000  Hf
  Hf5      1.0000 0.12517  0.74892  0.75128  Biso   1.000  Hf
  Hf6      1.0000 0.62517  0.24715  0.75129  Biso   1.000  Hf
  Hf7      1.0000 0.62518  0.75253  0.75128  Biso   1.000  Hf
  Hf8      1.0000 0.37476  0.25059  0.25071  Biso   1.000  Hf
  Hf9      1.0000 0.37476  0.74911  0.25185  Biso   1.000  Hf
  Hf10     1.0000 0.87558  0.25058  0.25186  Biso   1.000  Hf
  Hf11     1.0000 0.87558  0.74911  0.25071  Biso   1.000  Hf
  Hf12     1.0000 0.37237  0.99983  0.75128  Biso   1.000  Hf
  Hf13     1.0000 0.37564  0.49985  0.75128  Biso   1.000  Hf
  Hf14     1.0000 0.87798  0.99986  0.75127  Biso   1.000  Hf
  Hf15     1.0000 0.87471  0.49984  0.75127  Biso   1.000  Hf
  Hf16     1.0000 0.99747  0.14403  0.00044  Biso   1.000  Hf
  Hf17     1.0000 0.00502  0.63732  0.01678  Biso   1.000  Hf
  Hf18     1.0000 0.50779  0.14610  0.01909  Biso   1.000  Hf
  Hf19     1.0000 0.50430  0.64446  0.00452  Biso   1.000  Hf
  Hf20     1.0000 0.99043  0.12122  0.51955  Biso   1.000  Hf
  Hf21     1.0000 0.99813  0.60869  0.51263  Biso   1.000  Hf
  Hf22     1.0000 0.49966  0.10373  0.51310  Biso   1.000  Hf
  Hf23     1.0000 0.49683  0.60466  0.50216  Biso   1.000  Hf
  Hf24     1.0000 0.00502  0.36237  0.48579  Biso   1.000  Hf
  Hf25     1.0000 0.99747  0.85567  0.50209  Biso   1.000  Hf
  Hf26     1.0000 0.50432  0.35522  0.49801  Biso   1.000  Hf
  Hf27     1.0000 0.50778  0.85357  0.48353  Biso   1.000  Hf
  Hf28     1.0000 0.99814  0.39101  0.98994  Biso   1.000  Hf
  Hf29     1.0000 0.99041  0.87847  0.98299  Biso   1.000  Hf
  Hf30     1.0000 0.49684  0.39502  0.00037  Biso   1.000  Hf
  Hf31     1.0000 0.49964  0.89595  0.98952  Biso   1.000  Hf
  Hf32     1.0000 0.25288  0.14402  0.50210  Biso   1.000  Hf
  Hf33     1.0000 0.24532  0.63733  0.48578  Biso   1.000  Hf
  Hf34     1.0000 0.74258  0.14610  0.48354  Biso   1.000  Hf
  Hf35     1.0000 0.74603  0.64446  0.49799  Biso   1.000  Hf
  Hf36     1.0000 0.25993  0.12122  0.98299  Biso   1.000  Hf
  Hf37     1.0000 0.25220  0.60869  0.98993  Biso   1.000  Hf
  Hf38     1.0000 0.75071  0.10373  0.98953  Biso   1.000  Hf
  Hf39     1.0000 0.75351  0.60466  0.00036  Biso   1.000  Hf
  Hf40     1.0000 0.24532  0.36237  0.01678  Biso   1.000  Hf
  Hf41     1.0000 0.25287  0.85566  0.00045  Biso   1.000  Hf
  Hf42     1.0000 0.74603  0.35522  0.00453  Biso   1.000  Hf
  Hf43     1.0000 0.74255  0.85358  0.01908  Biso   1.000  Hf
  Hf44     1.0000 0.25221  0.39101  0.51263  Biso   1.000  Hf
  Hf45     1.0000 0.25993  0.87847  0.51956  Biso   1.000  Hf
  Hf46     1.0000 0.75351  0.39502  0.50216  Biso   1.000  Hf
  Hf47     1.0000 0.75070  0.89595  0.51309  Biso   1.000  Hf
