data_image0
_cell_length_a       10.0353
_cell_length_b       10.3689
_cell_length_c       5.02349
_cell_angle_alpha    90.1301
_cell_angle_beta     90.2835
_cell_angle_gamma    90.015

_symmetry_space_group_name_H-M    "P 1"
_symmetry_int_tables_number       1

loop_
  _symmetry_equiv_pos_as_xyz
  'x, y, z'

loop_
  _atom_site_label
  _atom_site_occupancy
  _atom_site_fract_x
  _atom_site_fract_y
  _atom_site_fract_z
  _atom_site_thermal_displace_type
  _atom_site_B_iso_or_equiv
  _atom_site_type_symbol
  Ca1      1.0000 0.12954  0.01263  0.24835  Biso   1.000  Ca
  Hf1      1.0000 0.13543  0.51624  0.25265  Biso   1.000  Hf
  Hf2      1.0000 0.63281  0.01553  0.24903  Biso   1.000  Hf
  Hf3      1.0000 0.63284  0.51582  0.25310  Biso   1.000  Hf
  Hf4      1.0000 0.13460  0.23377  0.75132  Biso   1.000  Hf
  Hf5      1.0000 0.13817  0.73459  0.75623  Biso   1.000  Hf
  Hf6      1.0000 0.63326  0.23249  0.74988  Biso   1.000  Hf
  Hf7      1.0000 0.63395  0.73256  0.75360  Biso   1.000  Hf
  Hf8      1.0000 0.36539  0.26596  0.25424  Biso   1.000  Hf
  Hf9      1.0000 0.36580  0.76640  0.25187  Biso   1.000  Hf
  Hf10     1.0000 0.86202  0.26680  0.25173  Biso   1.000  Hf
  Hf11     1.0000 0.86397  0.76606  0.25549  Biso   1.000  Hf
  Hf12     1.0000 0.36522  0.48247  0.75331  Biso   1.000  Hf
  Hf13     1.0000 0.36351  0.98165  0.75115  Biso   1.000  Hf
  Hf14     1.0000 0.86493  0.48435  0.75641  Biso   1.000  Hf
  Hf15     1.0000 0.86393  0.98159  0.75044  Biso   1.000  Hf
  Hf16     1.0000 0.03188  0.20003  0.39752  Biso   1.000  Hf
  Hf17     1.0000 0.03555  0.68380  0.39254  Biso   1.000  Hf
  Hf18     1.0000 0.53906  0.18546  0.38278  Biso   1.000  Hf
  Hf19     1.0000 0.53522  0.68152  0.39416  Biso   1.000  Hf
  Hf20     1.0000 0.03107  0.07238  0.85051  Biso   1.000  Hf
  Hf21     1.0000 0.03481  0.56731  0.89321  Biso   1.000  Hf
  Hf22     1.0000 0.53711  0.06514  0.88448  Biso   1.000  Hf
  Hf23     1.0000 0.53425  0.56596  0.89377  Biso   1.000  Hf
  Hf24     1.0000 0.46515  0.43309  0.39355  Biso   1.000  Hf
  Hf25     1.0000 0.46452  0.93483  0.38965  Biso   1.000  Hf
  Hf26     1.0000 0.96336  0.43832  0.39297  Biso   1.000  Hf
  Hf27     1.0000 0.94893  0.92771  0.40124  Biso   1.000  Hf
  Hf28     1.0000 0.46623  0.31699  0.89048  Biso   1.000  Hf
  Hf29     1.0000 0.47118  0.81797  0.89832  Biso   1.000  Hf
  Hf30     1.0000 0.96564  0.32064  0.89809  Biso   1.000  Hf
  Hf31     1.0000 0.96788  0.81716  0.89999  Biso   1.000  Hf
  Hf32     1.0000 0.28197  0.12753  0.51285  Biso   1.000  Hf
  Hf33     1.0000 0.27013  0.61494  0.50026  Biso   1.000  Hf
  Hf34     1.0000 0.76899  0.11678  0.49817  Biso   1.000  Hf
  Hf35     1.0000 0.77053  0.61653  0.49925  Biso   1.000  Hf
  Hf36     1.0000 0.27710  0.13441  0.99422  Biso   1.000  Hf
  Hf37     1.0000 0.27165  0.62910  0.00134  Biso   1.000  Hf
  Hf38     1.0000 0.76956  0.13366  0.99866  Biso   1.000  Hf
  Hf39     1.0000 0.76921  0.63100  0.99861  Biso   1.000  Hf
  Hf40     1.0000 0.23084  0.38254  0.00092  Biso   1.000  Hf
  Hf41     1.0000 0.23713  0.87375  0.99268  Biso   1.000  Hf
  Hf42     1.0000 0.72847  0.38322  0.99915  Biso   1.000  Hf
  Hf43     1.0000 0.73071  0.88069  0.00174  Biso   1.000  Hf
  Hf44     1.0000 0.22874  0.37013  0.49908  Biso   1.000  Hf
  Hf45     1.0000 0.23877  0.85915  0.50792  Biso   1.000  Hf
  Hf46     1.0000 0.73008  0.36794  0.50142  Biso   1.000  Hf
  Hf47     1.0000 0.72081  0.86584  0.50021  Biso   1.000  Hf
