data_image0
_cell_length_a       10.0194
_cell_length_b       10.1839
_cell_length_c       10.0194
_cell_angle_alpha    89.9982
_cell_angle_beta     89.9998
_cell_angle_gamma    89.9988

_symmetry_space_group_name_H-M    "P 1"
_symmetry_int_tables_number       1

loop_
  _symmetry_equiv_pos_as_xyz
  'x, y, z'

loop_
  _atom_site_label
  _atom_site_occupancy
  _atom_site_fract_x
  _atom_site_fract_y
  _atom_site_fract_z
  _atom_site_thermal_displace_type
  _atom_site_B_iso_or_equiv
  _atom_site_type_symbol
  Ca1      1.0000 0.12499  0.00001  0.12497  Biso   1.000  Ca
  Hf1      1.0000 0.12499  0.00001  0.62497  Biso   1.000  Hf
  Hf2      1.0000 0.12499  0.50000  0.12497  Biso   1.000  Hf
  Hf3      1.0000 0.12499  0.50000  0.62497  Biso   1.000  Hf
  Hf4      1.0000 0.62499  0.00001  0.12497  Biso   1.000  Hf
  Hf5      1.0000 0.62499  0.00000  0.62497  Biso   1.000  Hf
  Hf6      1.0000 0.62499  0.50000  0.12497  Biso   1.000  Hf
  Hf7      1.0000 0.62499  0.50000  0.62497  Biso   1.000  Hf
  Hf8      1.0000 0.12453  0.24989  0.37319  Biso   1.000  Hf
  Hf9      1.0000 0.12546  0.24989  0.87676  Biso   1.000  Hf
  Hf10     1.0000 0.12546  0.75012  0.37319  Biso   1.000  Hf
  Hf11     1.0000 0.12453  0.75012  0.87676  Biso   1.000  Hf
  Hf12     1.0000 0.62505  0.24925  0.37458  Biso   1.000  Hf
  Hf13     1.0000 0.62494  0.24925  0.87536  Biso   1.000  Hf
  Hf14     1.0000 0.62495  0.75076  0.37458  Biso   1.000  Hf
  Hf15     1.0000 0.62505  0.75076  0.87537  Biso   1.000  Hf
  Hf16     1.0000 0.37321  0.24989  0.12451  Biso   1.000  Hf
  Hf17     1.0000 0.37460  0.24925  0.62502  Biso   1.000  Hf
  Hf18     1.0000 0.37321  0.75012  0.12544  Biso   1.000  Hf
  Hf19     1.0000 0.37460  0.75076  0.62492  Biso   1.000  Hf
  Hf20     1.0000 0.87678  0.24989  0.12544  Biso   1.000  Hf
  Hf21     1.0000 0.87539  0.24925  0.62492  Biso   1.000  Hf
  Hf22     1.0000 0.87678  0.75012  0.12451  Biso   1.000  Hf
  Hf23     1.0000 0.87539  0.75076  0.62503  Biso   1.000  Hf
  Hf24     1.0000 0.37281  0.99939  0.37279  Biso   1.000  Hf
  Hf25     1.0000 0.37280  0.00063  0.87715  Biso   1.000  Hf
  Hf26     1.0000 0.37502  0.49901  0.37500  Biso   1.000  Hf
  Hf27     1.0000 0.37502  0.50100  0.87493  Biso   1.000  Hf
  Hf28     1.0000 0.87717  0.00062  0.37279  Biso   1.000  Hf
  Hf29     1.0000 0.87717  0.99939  0.87715  Biso   1.000  Hf
  Hf30     1.0000 0.87495  0.50100  0.37500  Biso   1.000  Hf
  Hf31     1.0000 0.87495  0.49901  0.87493  Biso   1.000  Hf
  Hf32     1.0000 0.99517  0.14554  0.99515  Biso   1.000  Hf
  Hf33     1.0000 0.00576  0.14569  0.50613  Biso   1.000  Hf
  Hf34     1.0000 0.00431  0.63867  0.00429  Biso   1.000  Hf
  Hf35     1.0000 0.00175  0.64520  0.50331  Biso   1.000  Hf
  Hf36     1.0000 0.50614  0.14569  0.00574  Biso   1.000  Hf
  Hf37     1.0000 0.50448  0.14694  0.50445  Biso   1.000  Hf
  Hf38     1.0000 0.50333  0.64520  0.00173  Biso   1.000  Hf
  Hf39     1.0000 0.50125  0.64634  0.50123  Biso   1.000  Hf
  Hf40     1.0000 0.99090  0.12025  0.25906  Biso   1.000  Hf
  Hf41     1.0000 0.99682  0.10407  0.75045  Biso   1.000  Hf
  Hf42     1.0000 0.99784  0.60768  0.25213  Biso   1.000  Hf
  Hf43     1.0000 0.99924  0.60441  0.75267  Biso   1.000  Hf
  Hf44     1.0000 0.49951  0.10407  0.25315  Biso   1.000  Hf
  Hf45     1.0000 0.49749  0.10356  0.75247  Biso   1.000  Hf
  Hf46     1.0000 0.49729  0.60441  0.25072  Biso   1.000  Hf
  Hf47     1.0000 0.49922  0.60368  0.75074  Biso   1.000  Hf
  Hf48     1.0000 0.00432  0.36134  0.24565  Biso   1.000  Hf
  Hf49     1.0000 0.00175  0.35481  0.74663  Biso   1.000  Hf
  Hf50     1.0000 0.99517  0.85448  0.25479  Biso   1.000  Hf
  Hf51     1.0000 0.00576  0.85432  0.74382  Biso   1.000  Hf
  Hf52     1.0000 0.50333  0.35481  0.24821  Biso   1.000  Hf
  Hf53     1.0000 0.50125  0.35367  0.74871  Biso   1.000  Hf
  Hf54     1.0000 0.50615  0.85432  0.24420  Biso   1.000  Hf
  Hf55     1.0000 0.50448  0.85307  0.74548  Biso   1.000  Hf
  Hf56     1.0000 0.99783  0.39233  0.99781  Biso   1.000  Hf
  Hf57     1.0000 0.99924  0.39560  0.49727  Biso   1.000  Hf
  Hf58     1.0000 0.99091  0.87977  0.99088  Biso   1.000  Hf
  Hf59     1.0000 0.99682  0.89594  0.49949  Biso   1.000  Hf
  Hf60     1.0000 0.49729  0.39561  0.99922  Biso   1.000  Hf
  Hf61     1.0000 0.49922  0.39633  0.49920  Biso   1.000  Hf
  Hf62     1.0000 0.49952  0.89594  0.99679  Biso   1.000  Hf
  Hf63     1.0000 0.49750  0.89646  0.49747  Biso   1.000  Hf
  Hf64     1.0000 0.25481  0.14553  0.25479  Biso   1.000  Hf
  Hf65     1.0000 0.24422  0.14569  0.74382  Biso   1.000  Hf
  Hf66     1.0000 0.24567  0.63867  0.24565  Biso   1.000  Hf
  Hf67     1.0000 0.24823  0.64520  0.74663  Biso   1.000  Hf
  Hf68     1.0000 0.74384  0.14569  0.24420  Biso   1.000  Hf
  Hf69     1.0000 0.74551  0.14694  0.74549  Biso   1.000  Hf
  Hf70     1.0000 0.74666  0.64520  0.24821  Biso   1.000  Hf
  Hf71     1.0000 0.74873  0.64633  0.74871  Biso   1.000  Hf
  Hf72     1.0000 0.25908  0.12024  0.99088  Biso   1.000  Hf
  Hf73     1.0000 0.25317  0.10407  0.49949  Biso   1.000  Hf
  Hf74     1.0000 0.25215  0.60768  0.99782  Biso   1.000  Hf
  Hf75     1.0000 0.25074  0.60441  0.49727  Biso   1.000  Hf
  Hf76     1.0000 0.75047  0.10408  0.99679  Biso   1.000  Hf
  Hf77     1.0000 0.75249  0.10356  0.49747  Biso   1.000  Hf
  Hf78     1.0000 0.75269  0.60441  0.99922  Biso   1.000  Hf
  Hf79     1.0000 0.75076  0.60368  0.49920  Biso   1.000  Hf
  Hf80     1.0000 0.24566  0.36134  0.00429  Biso   1.000  Hf
  Hf81     1.0000 0.24823  0.35481  0.50331  Biso   1.000  Hf
  Hf82     1.0000 0.25481  0.85448  0.99515  Biso   1.000  Hf
  Hf83     1.0000 0.24423  0.85432  0.50612  Biso   1.000  Hf
  Hf84     1.0000 0.74665  0.35481  0.00173  Biso   1.000  Hf
  Hf85     1.0000 0.74873  0.35367  0.50123  Biso   1.000  Hf
  Hf86     1.0000 0.74384  0.85432  0.00574  Biso   1.000  Hf
  Hf87     1.0000 0.74551  0.85307  0.50445  Biso   1.000  Hf
  Hf88     1.0000 0.25215  0.39233  0.25213  Biso   1.000  Hf
  Hf89     1.0000 0.25074  0.39560  0.75267  Biso   1.000  Hf
  Hf90     1.0000 0.25908  0.87977  0.25906  Biso   1.000  Hf
  Hf91     1.0000 0.25317  0.89594  0.75045  Biso   1.000  Hf
  Hf92     1.0000 0.75269  0.39560  0.25072  Biso   1.000  Hf
  Hf93     1.0000 0.75076  0.39632  0.75074  Biso   1.000  Hf
  Hf94     1.0000 0.75047  0.89594  0.25315  Biso   1.000  Hf
  Hf95     1.0000 0.75249  0.89645  0.75247  Biso   1.000  Hf
