data_image0
_cell_length_a       10.1172
_cell_length_b       10.4265
_cell_length_c       5.09284
_cell_angle_alpha    90.3237
_cell_angle_beta     90.2586
_cell_angle_gamma    93.7782

_symmetry_space_group_name_H-M    "P 1"
_symmetry_int_tables_number       1

loop_
  _symmetry_equiv_pos_as_xyz
  'x, y, z'

loop_
  _atom_site_label
  _atom_site_occupancy
  _atom_site_fract_x
  _atom_site_fract_y
  _atom_site_fract_z
  _atom_site_thermal_displace_type
  _atom_site_B_iso_or_equiv
  _atom_site_type_symbol
  Hf1      1.0000 0.13882  0.97023  0.16687  Biso   1.000  Hf
  Hf2      1.0000 0.11337  0.23846  0.72388  Biso   1.000  Hf
  Hf3      1.0000 0.36967  0.26940  0.22684  Biso   1.000  Hf
  Hf4      1.0000 0.36985  0.48500  0.74406  Biso   1.000  Hf
  Hf5      1.0000 0.94965  0.17361  0.49746  Biso   1.000  Hf
  Hf6      1.0000 0.01486  0.07279  0.93783  Biso   1.000  Hf
  Hf7      1.0000 0.47082  0.43245  0.40004  Biso   1.000  Hf
  Hf8      1.0000 0.46647  0.33281  0.90321  Biso   1.000  Hf
  Hf9      1.0000 0.21419  0.10900  0.45448  Biso   1.000  Hf
  Hf10     1.0000 0.25366  0.13915  0.96148  Biso   1.000  Hf
  Hf11     1.0000 0.22575  0.39003  0.98588  Biso   1.000  Hf
  Hf12     1.0000 0.23507  0.36545  0.48245  Biso   1.000  Hf
  Hf13     1.0000 0.13860  0.52598  0.24600  Biso   1.000  Hf
  Hf14     1.0000 0.15590  0.73247  0.74278  Biso   1.000  Hf
  Hf15     1.0000 0.39062  0.76602  0.25231  Biso   1.000  Hf
  Hf16     1.0000 0.35784  0.02191  0.67333  Biso   1.000  Hf
  Hf17     1.0000 0.03895  0.67361  0.41980  Biso   1.000  Hf
  Hf18     1.0000 0.04100  0.57164  0.90238  Biso   1.000  Hf
  Hf19     1.0000 0.48424  0.92817  0.43304  Biso   1.000  Hf
  Hf20     1.0000 0.53133  0.82598  0.98006  Biso   1.000  Hf
  Hf21     1.0000 0.28038  0.61748  0.49546  Biso   1.000  Hf
  Hf22     1.0000 0.28234  0.63786  0.99465  Biso   1.000  Hf
  Hf23     1.0000 0.27999  0.88436  0.95039  Biso   1.000  Hf
  Hf24     1.0000 0.24401  0.86123  0.45860  Biso   1.000  Hf
  Hf25     1.0000 0.63384  0.98091  0.17540  Biso   1.000  Hf
  Hf26     1.0000 0.61522  0.23287  0.75485  Biso   1.000  Hf
  Hf27     1.0000 0.82585  0.26528  0.24631  Biso   1.000  Hf
  Hf28     1.0000 0.87370  0.48029  0.75069  Biso   1.000  Hf
  Hf29     1.0000 0.46731  0.17628  0.49511  Biso   1.000  Hf
  Hf30     1.0000 0.50696  0.08042  0.94881  Biso   1.000  Hf
  Hf31     1.0000 0.97585  0.41833  0.41165  Biso   1.000  Hf
  Hf32     1.0000 0.95560  0.32264  0.92280  Biso   1.000  Hf
  Hf33     1.0000 0.71133  0.11121  0.46653  Biso   1.000  Hf
  Hf34     1.0000 0.75371  0.13199  0.96653  Biso   1.000  Hf
  Hf35     1.0000 0.72335  0.38878  0.99681  Biso   1.000  Hf
  Hf36     1.0000 0.71942  0.36803  0.50456  Biso   1.000  Hf
  Hf37     1.0000 0.63488  0.52067  0.24939  Biso   1.000  Hf
  Hf38     1.0000 0.65702  0.73195  0.75094  Biso   1.000  Hf
  Hf39     1.0000 0.88482  0.76514  0.25595  Biso   1.000  Hf
  Hf40     1.0000 0.86238  0.01542  0.67878  Biso   1.000  Hf
  Hf41     1.0000 0.54221  0.67779  0.42217  Biso   1.000  Hf
  Hf42     1.0000 0.53851  0.57620  0.90708  Biso   1.000  Hf
  Hf43     1.0000 0.98703  0.92478  0.43186  Biso   1.000  Hf
  Hf44     1.0000 0.02977  0.81908  0.97956  Biso   1.000  Hf
  Hf45     1.0000 0.78008  0.61412  0.49599  Biso   1.000  Hf
  Hf46     1.0000 0.78421  0.63506  0.99454  Biso   1.000  Hf
  Hf47     1.0000 0.77830  0.88500  0.96772  Biso   1.000  Hf
  Hf48     1.0000 0.74364  0.86338  0.46930  Biso   1.000  Hf
  Ca1      1.0000 0.09671  0.24476  0.21643  Biso   1.000  Ca
