data_image0
_cell_length_a       10.1771
_cell_length_b       10.2691
_cell_length_c       10.4586
_cell_angle_alpha    90.0176
_cell_angle_beta     80.1132
_cell_angle_gamma    90.0775

_symmetry_space_group_name_H-M    "P 1"
_symmetry_int_tables_number       1

loop_
  _symmetry_equiv_pos_as_xyz
  'x, y, z'

loop_
  _atom_site_label
  _atom_site_occupancy
  _atom_site_fract_x
  _atom_site_fract_y
  _atom_site_fract_z
  _atom_site_thermal_displace_type
  _atom_site_B_iso_or_equiv
  _atom_site_type_symbol
  Ca1      1.0000 0.14047  0.01629  0.14586  Biso   1.000  Ca
  Hf1      1.0000 0.13970  0.02122  0.64609  Biso   1.000  Hf
  Hf2      1.0000 0.13986  0.52050  0.14482  Biso   1.000  Hf
  Hf3      1.0000 0.13977  0.52124  0.64637  Biso   1.000  Hf
  Hf4      1.0000 0.63973  0.02048  0.14646  Biso   1.000  Hf
  Hf5      1.0000 0.63944  0.02141  0.64600  Biso   1.000  Hf
  Hf6      1.0000 0.63789  0.51959  0.14570  Biso   1.000  Hf
  Hf7      1.0000 0.63875  0.52135  0.64534  Biso   1.000  Hf
  Hf8      1.0000 0.14028  0.22714  0.39533  Biso   1.000  Hf
  Hf9      1.0000 0.13913  0.22834  0.89816  Biso   1.000  Hf
  Hf10     1.0000 0.14137  0.72795  0.39513  Biso   1.000  Hf
  Hf11     1.0000 0.14132  0.73049  0.89617  Biso   1.000  Hf
  Hf12     1.0000 0.63837  0.22854  0.39596  Biso   1.000  Hf
  Hf13     1.0000 0.63909  0.22907  0.89631  Biso   1.000  Hf
  Hf14     1.0000 0.63730  0.72902  0.39577  Biso   1.000  Hf
  Hf15     1.0000 0.64012  0.72877  0.89555  Biso   1.000  Hf
  Hf16     1.0000 0.35809  0.26665  0.10480  Biso   1.000  Hf
  Hf17     1.0000 0.35978  0.27057  0.60456  Biso   1.000  Hf
  Hf18     1.0000 0.36137  0.77125  0.10358  Biso   1.000  Hf
  Hf19     1.0000 0.36048  0.77231  0.60390  Biso   1.000  Hf
  Hf20     1.0000 0.86094  0.27090  0.10252  Biso   1.000  Hf
  Hf21     1.0000 0.86046  0.27122  0.60345  Biso   1.000  Hf
  Hf22     1.0000 0.85865  0.77051  0.10478  Biso   1.000  Hf
  Hf23     1.0000 0.86122  0.77134  0.60324  Biso   1.000  Hf
  Hf24     1.0000 0.35972  0.47730  0.35300  Biso   1.000  Hf
  Hf25     1.0000 0.36112  0.47786  0.85460  Biso   1.000  Hf
  Hf26     1.0000 0.35928  0.97984  0.35296  Biso   1.000  Hf
  Hf27     1.0000 0.36041  0.97952  0.85543  Biso   1.000  Hf
  Hf28     1.0000 0.85991  0.47928  0.35369  Biso   1.000  Hf
  Hf29     1.0000 0.86022  0.47951  0.85315  Biso   1.000  Hf
  Hf30     1.0000 0.86128  0.97893  0.35311  Biso   1.000  Hf
  Hf31     1.0000 0.86082  0.97859  0.85442  Biso   1.000  Hf
  O1       1.0000 0.03345  0.17991  0.07712  Biso   1.000  O
  O2       1.0000 0.03538  0.17129  0.58396  Biso   1.000  O
  O3       1.0000 0.03489  0.66841  0.07959  Biso   1.000  O
  O4       1.0000 0.03499  0.66798  0.58069  Biso   1.000  O
  O5       1.0000 0.53564  0.16768  0.07928  Biso   1.000  O
  O6       1.0000 0.53314  0.16688  0.57994  Biso   1.000  O
  O7       1.0000 0.53482  0.66582  0.07826  Biso   1.000  O
  O8       1.0000 0.53352  0.66680  0.57956  Biso   1.000  O
  O9       1.0000 0.02761  0.08524  0.34383  Biso   1.000  O
  O10      1.0000 0.03483  0.08090  0.83103  Biso   1.000  O
  O11      1.0000 0.03387  0.58310  0.32913  Biso   1.000  O
  O12      1.0000 0.03484  0.58155  0.82975  Biso   1.000  O
  O13      1.0000 0.53554  0.08168  0.33015  Biso   1.000  O
  O14      1.0000 0.53649  0.08271  0.82864  Biso   1.000  O
  O15      1.0000 0.53280  0.58253  0.32880  Biso   1.000  O
  O16      1.0000 0.53431  0.58362  0.82827  Biso   1.000  O
  O17      1.0000 0.46503  0.41492  0.17135  Biso   1.000  O
  O18      1.0000 0.46581  0.41666  0.67088  Biso   1.000  O
  O19      1.0000 0.46681  0.91817  0.16952  Biso   1.000  O
  O20      1.0000 0.46627  0.91661  0.67155  Biso   1.000  O
  O21      1.0000 0.96272  0.42129  0.16894  Biso   1.000  O
  O22      1.0000 0.96481  0.41973  0.66817  Biso   1.000  O
  O23      1.0000 0.95052  0.91523  0.17422  Biso   1.000  O
  O24      1.0000 0.96498  0.91856  0.66963  Biso   1.000  O
  O25      1.0000 0.46494  0.33239  0.42144  Biso   1.000  O
  O26      1.0000 0.46794  0.33502  0.92113  Biso   1.000  O
  O27      1.0000 0.46494  0.83314  0.42242  Biso   1.000  O
  O28      1.0000 0.47257  0.83651  0.92127  Biso   1.000  O
  O29      1.0000 0.96542  0.33422  0.42032  Biso   1.000  O
  O30      1.0000 0.96372  0.33312  0.91582  Biso   1.000  O
  O31      1.0000 0.96659  0.83152  0.42010  Biso   1.000  O
  O32      1.0000 0.96534  0.83127  0.91937  Biso   1.000  O
  O33      1.0000 0.28483  0.13466  0.24924  Biso   1.000  O
  O34      1.0000 0.27548  0.12816  0.73981  Biso   1.000  O
  O35      1.0000 0.27636  0.62443  0.23919  Biso   1.000  O
  O36      1.0000 0.27624  0.62951  0.74079  Biso   1.000  O
  O37      1.0000 0.77526  0.12968  0.24108  Biso   1.000  O
  O38      1.0000 0.77709  0.12883  0.74052  Biso   1.000  O
  O39      1.0000 0.77439  0.62811  0.24061  Biso   1.000  O
  O40      1.0000 0.77597  0.62891  0.73911  Biso   1.000  O
  O41      1.0000 0.27501  0.12046  0.49368  Biso   1.000  O
  O42      1.0000 0.28506  0.12757  0.98261  Biso   1.000  O
  O43      1.0000 0.27611  0.62085  0.49045  Biso   1.000  O
  O44      1.0000 0.27668  0.61861  0.99048  Biso   1.000  O
  O45      1.0000 0.77333  0.12275  0.49203  Biso   1.000  O
  O46      1.0000 0.77610  0.12092  0.99020  Biso   1.000  O
  O47      1.0000 0.77547  0.62174  0.49009  Biso   1.000  O
  O48      1.0000 0.77502  0.61968  0.98952  Biso   1.000  O
  O49      1.0000 0.22427  0.37909  0.00893  Biso   1.000  O
  O50      1.0000 0.22406  0.37899  0.50961  Biso   1.000  O
  O51      1.0000 0.23401  0.86935  0.99994  Biso   1.000  O
  O52      1.0000 0.22313  0.87877  0.51026  Biso   1.000  O
  O53      1.0000 0.72318  0.37909  0.00840  Biso   1.000  O
  O54      1.0000 0.72344  0.37951  0.50910  Biso   1.000  O
  O55      1.0000 0.72468  0.87848  0.00861  Biso   1.000  O
  O56      1.0000 0.72474  0.87867  0.50934  Biso   1.000  O
  O57      1.0000 0.22079  0.37200  0.25871  Biso   1.000  O
  O58      1.0000 0.22435  0.37174  0.75938  Biso   1.000  O
  O59      1.0000 0.23357  0.86216  0.26318  Biso   1.000  O
  O60      1.0000 0.22352  0.87222  0.75720  Biso   1.000  O
  O61      1.0000 0.72291  0.37163  0.26012  Biso   1.000  O
  O62      1.0000 0.72412  0.37120  0.75821  Biso   1.000  O
  O63      1.0000 0.71466  0.86972  0.26072  Biso   1.000  O
  O64      1.0000 0.72535  0.87107  0.75854  Biso   1.000  O
