data_image0
_cell_length_a       10.1105
_cell_length_b       5.12152
_cell_length_c       10.4743
_cell_angle_alpha    89.9805
_cell_angle_beta     89.8217
_cell_angle_gamma    90.128

_symmetry_space_group_name_H-M    "P 1"
_symmetry_int_tables_number       1

loop_
  _symmetry_equiv_pos_as_xyz
  'x, y, z'

loop_
  _atom_site_label
  _atom_site_occupancy
  _atom_site_fract_x
  _atom_site_fract_y
  _atom_site_fract_z
  _atom_site_thermal_displace_type
  _atom_site_B_iso_or_equiv
  _atom_site_type_symbol
  Ca1      1.0000 0.14006  0.03188  0.17140  Biso   1.000  Ca
  Hf1      1.0000 0.14022  0.04165  0.67286  Biso   1.000  Hf
  Hf2      1.0000 0.14359  0.45513  0.42206  Biso   1.000  Hf
  Hf3      1.0000 0.14192  0.46008  0.92447  Biso   1.000  Hf
  Hf4      1.0000 0.35818  0.53398  0.17166  Biso   1.000  Hf
  Hf5      1.0000 0.36018  0.54217  0.67269  Biso   1.000  Hf
  Hf6      1.0000 0.35931  0.95701  0.42044  Biso   1.000  Hf
  Hf7      1.0000 0.35911  0.95870  0.92416  Biso   1.000  Hf
  Hf8      1.0000 0.63841  0.03883  0.07790  Biso   1.000  Hf
  Hf9      1.0000 0.63843  0.04129  0.57700  Biso   1.000  Hf
  Hf10     1.0000 0.63915  0.45943  0.32742  Biso   1.000  Hf
  Hf11     1.0000 0.63787  0.45730  0.82694  Biso   1.000  Hf
  Hf12     1.0000 0.85809  0.54048  0.07531  Biso   1.000  Hf
  Hf13     1.0000 0.86116  0.54187  0.57728  Biso   1.000  Hf
  Hf14     1.0000 0.86074  0.96064  0.32792  Biso   1.000  Hf
  Hf15     1.0000 0.85942  0.95950  0.82690  Biso   1.000  Hf
  O1       1.0000 0.02879  0.34913  0.07860  Biso   1.000  O
  O2       1.0000 0.03326  0.33653  0.58941  Biso   1.000  O
  O3       1.0000 0.02403  0.18202  0.34670  Biso   1.000  O
  O4       1.0000 0.03115  0.17004  0.83413  Biso   1.000  O
  O5       1.0000 0.46984  0.82460  0.08329  Biso   1.000  O
  O6       1.0000 0.46866  0.82619  0.58285  Biso   1.000  O
  O7       1.0000 0.47266  0.67742  0.33241  Biso   1.000  O
  O8       1.0000 0.46855  0.67136  0.83205  Biso   1.000  O
  O9       1.0000 0.28415  0.25102  0.30436  Biso   1.000  O
  O10      1.0000 0.27445  0.24855  0.79498  Biso   1.000  O
  O11      1.0000 0.28484  0.25736  0.03970  Biso   1.000  O
  O12      1.0000 0.27567  0.25000  0.54853  Biso   1.000  O
  O13      1.0000 0.23130  0.73211  0.30150  Biso   1.000  O
  O14      1.0000 0.22472  0.75055  0.79415  Biso   1.000  O
  O15      1.0000 0.23425  0.73544  0.03949  Biso   1.000  O
  O16      1.0000 0.22470  0.75247  0.54775  Biso   1.000  O
  O17      1.0000 0.53264  0.32491  0.16707  Biso   1.000  O
  O18      1.0000 0.53148  0.32722  0.66613  Biso   1.000  O
  O19      1.0000 0.53297  0.16991  0.41638  Biso   1.000  O
  O20      1.0000 0.53302  0.16911  0.91579  Biso   1.000  O
  O21      1.0000 0.95211  0.82338  0.16797  Biso   1.000  O
  O22      1.0000 0.96669  0.83451  0.66391  Biso   1.000  O
  O23      1.0000 0.97040  0.67540  0.41726  Biso   1.000  O
  O24      1.0000 0.96744  0.67558  0.91217  Biso   1.000  O
  O25      1.0000 0.77399  0.24496  0.95195  Biso   1.000  O
  O26      1.0000 0.77335  0.25342  0.45532  Biso   1.000  O
  O27      1.0000 0.77511  0.25300  0.20398  Biso   1.000  O
  O28      1.0000 0.77475  0.25238  0.70321  Biso   1.000  O
  O29      1.0000 0.72289  0.74687  0.95176  Biso   1.000  O
  O30      1.0000 0.72616  0.75065  0.45390  Biso   1.000  O
  O31      1.0000 0.71552  0.75301  0.20418  Biso   1.000  O
  O32      1.0000 0.72462  0.75096  0.70271  Biso   1.000  O
