data_image0
_cell_length_a       10.0585
_cell_length_b       10.2877
_cell_length_c       10.0585
_cell_angle_alpha    89.9998
_cell_angle_beta     90
_cell_angle_gamma    89.9997

_symmetry_space_group_name_H-M    "P 1"
_symmetry_int_tables_number       1

loop_
  _symmetry_equiv_pos_as_xyz
  'x, y, z'

loop_
  _atom_site_label
  _atom_site_occupancy
  _atom_site_fract_x
  _atom_site_fract_y
  _atom_site_fract_z
  _atom_site_thermal_displace_type
  _atom_site_B_iso_or_equiv
  _atom_site_type_symbol
  Hf1      1.0000 0.12490  0.96761  0.12490  Biso   1.000  Hf
  Hf2      1.0000 0.12491  0.25005  0.39234  Biso   1.000  Hf
  Hf3      1.0000 0.39233  0.25005  0.12491  Biso   1.000  Hf
  Hf4      1.0000 0.37532  0.01027  0.37531  Biso   1.000  Hf
  Hf5      1.0000 0.98040  0.16123  0.98039  Biso   1.000  Hf
  Hf6      1.0000 0.01035  0.09279  0.23948  Biso   1.000  Hf
  Hf7      1.0000 0.98039  0.33886  0.26944  Biso   1.000  Hf
  Hf8      1.0000 0.01034  0.40731  0.01035  Biso   1.000  Hf
  Hf9      1.0000 0.26945  0.16126  0.26945  Biso   1.000  Hf
  Hf10     1.0000 0.23949  0.09279  0.01036  Biso   1.000  Hf
  Hf11     1.0000 0.26944  0.33886  0.98038  Biso   1.000  Hf
  Hf12     1.0000 0.23948  0.40733  0.23947  Biso   1.000  Hf
  Hf13     1.0000 0.12490  0.99275  0.62490  Biso   1.000  Hf
  Hf14     1.0000 0.12491  0.25005  0.85749  Biso   1.000  Hf
  Hf15     1.0000 0.37580  0.25005  0.62491  Biso   1.000  Hf
  Hf16     1.0000 0.37114  0.00496  0.87868  Biso   1.000  Hf
  Hf17     1.0000 0.99103  0.14342  0.49555  Biso   1.000  Hf
  Hf18     1.0000 0.00185  0.10285  0.74134  Biso   1.000  Hf
  Hf19     1.0000 0.99102  0.35668  0.75428  Biso   1.000  Hf
  Hf20     1.0000 0.00185  0.39726  0.50848  Biso   1.000  Hf
  Hf21     1.0000 0.25879  0.14342  0.75428  Biso   1.000  Hf
  Hf22     1.0000 0.24797  0.10285  0.50848  Biso   1.000  Hf
  Hf23     1.0000 0.25879  0.35669  0.49555  Biso   1.000  Hf
  Hf24     1.0000 0.24797  0.39726  0.74134  Biso   1.000  Hf
  Hf25     1.0000 0.12490  0.53250  0.12491  Biso   1.000  Hf
  Hf26     1.0000 0.12491  0.75006  0.38383  Biso   1.000  Hf
  Hf27     1.0000 0.38382  0.75006  0.12491  Biso   1.000  Hf
  Hf28     1.0000 0.37114  0.49515  0.37114  Biso   1.000  Hf
  Hf29     1.0000 0.00477  0.65744  0.00478  Biso   1.000  Hf
  Hf30     1.0000 0.99325  0.60147  0.25656  Biso   1.000  Hf
  Hf31     1.0000 0.00478  0.84266  0.24503  Biso   1.000  Hf
  Hf32     1.0000 0.99326  0.89863  0.99325  Biso   1.000  Hf
  Hf33     1.0000 0.24502  0.65746  0.24502  Biso   1.000  Hf
  Hf34     1.0000 0.25654  0.60146  0.99325  Biso   1.000  Hf
  Hf35     1.0000 0.24503  0.84266  0.00478  Biso   1.000  Hf
  Hf36     1.0000 0.25655  0.89865  0.25656  Biso   1.000  Hf
  Hf37     1.0000 0.12491  0.50735  0.62491  Biso   1.000  Hf
  Hf38     1.0000 0.12491  0.75005  0.86599  Biso   1.000  Hf
  Hf39     1.0000 0.37852  0.75006  0.62491  Biso   1.000  Hf
  Hf40     1.0000 0.37532  0.48985  0.87450  Biso   1.000  Hf
  Hf41     1.0000 0.99964  0.64747  0.50633  Biso   1.000  Hf
  Hf42     1.0000 0.00372  0.60351  0.75672  Biso   1.000  Hf
  Hf43     1.0000 0.99965  0.85263  0.74348  Biso   1.000  Hf
  Hf44     1.0000 0.00372  0.89659  0.49309  Biso   1.000  Hf
  Hf45     1.0000 0.25016  0.64747  0.74347  Biso   1.000  Hf
  Hf46     1.0000 0.24609  0.60352  0.49309  Biso   1.000  Hf
  Hf47     1.0000 0.25017  0.85264  0.50633  Biso   1.000  Hf
  Hf48     1.0000 0.24609  0.89660  0.75672  Biso   1.000  Hf
  Hf49     1.0000 0.62491  0.99276  0.12490  Biso   1.000  Hf
  Hf50     1.0000 0.62491  0.25005  0.37580  Biso   1.000  Hf
  Hf51     1.0000 0.85750  0.25006  0.12491  Biso   1.000  Hf
  Hf52     1.0000 0.87868  0.00496  0.37113  Biso   1.000  Hf
  Hf53     1.0000 0.49556  0.14342  0.99103  Biso   1.000  Hf
  Hf54     1.0000 0.50848  0.10285  0.24797  Biso   1.000  Hf
  Hf55     1.0000 0.49556  0.35669  0.25879  Biso   1.000  Hf
  Hf56     1.0000 0.50848  0.39726  0.00185  Biso   1.000  Hf
  Hf57     1.0000 0.75428  0.14343  0.25879  Biso   1.000  Hf
  Hf58     1.0000 0.74135  0.10285  0.00185  Biso   1.000  Hf
  Hf59     1.0000 0.75427  0.35668  0.99102  Biso   1.000  Hf
  Hf60     1.0000 0.74135  0.39726  0.24797  Biso   1.000  Hf
  Hf61     1.0000 0.62491  0.99911  0.62490  Biso   1.000  Hf
  Hf62     1.0000 0.62491  0.25006  0.87402  Biso   1.000  Hf
  Hf63     1.0000 0.87402  0.25006  0.62491  Biso   1.000  Hf
  Hf64     1.0000 0.87450  0.01026  0.87450  Biso   1.000  Hf
  Hf65     1.0000 0.49691  0.15040  0.49691  Biso   1.000  Hf
  Hf66     1.0000 0.50209  0.10019  0.74773  Biso   1.000  Hf
  Hf67     1.0000 0.49691  0.34971  0.75290  Biso   1.000  Hf
  Hf68     1.0000 0.50208  0.39992  0.50208  Biso   1.000  Hf
  Hf69     1.0000 0.75290  0.15040  0.75290  Biso   1.000  Hf
  Hf70     1.0000 0.74773  0.10019  0.50208  Biso   1.000  Hf
  Hf71     1.0000 0.75291  0.34971  0.49691  Biso   1.000  Hf
  Hf72     1.0000 0.74773  0.39992  0.74773  Biso   1.000  Hf
  Hf73     1.0000 0.62490  0.50734  0.12492  Biso   1.000  Hf
  Hf74     1.0000 0.62490  0.75006  0.37853  Biso   1.000  Hf
  Hf75     1.0000 0.86598  0.75005  0.12491  Biso   1.000  Hf
  Hf76     1.0000 0.87450  0.48985  0.37532  Biso   1.000  Hf
  Hf77     1.0000 0.50632  0.64747  0.99965  Biso   1.000  Hf
  Hf78     1.0000 0.49309  0.60352  0.24609  Biso   1.000  Hf
  Hf79     1.0000 0.50632  0.85264  0.25017  Biso   1.000  Hf
  Hf80     1.0000 0.49310  0.89659  0.00372  Biso   1.000  Hf
  Hf81     1.0000 0.74348  0.64747  0.25017  Biso   1.000  Hf
  Hf82     1.0000 0.75670  0.60351  0.00373  Biso   1.000  Hf
  Hf83     1.0000 0.74348  0.85263  0.99965  Biso   1.000  Hf
  Hf84     1.0000 0.75671  0.89659  0.24610  Biso   1.000  Hf
  Hf85     1.0000 0.62491  0.50100  0.62491  Biso   1.000  Hf
  Hf86     1.0000 0.62490  0.75005  0.87130  Biso   1.000  Hf
  Hf87     1.0000 0.87129  0.75005  0.62491  Biso   1.000  Hf
  Hf88     1.0000 0.87868  0.49515  0.87869  Biso   1.000  Hf
  Hf89     1.0000 0.49800  0.64880  0.49801  Biso   1.000  Hf
  Hf90     1.0000 0.50043  0.60032  0.74939  Biso   1.000  Hf
  Hf91     1.0000 0.49801  0.85131  0.75181  Biso   1.000  Hf
  Hf92     1.0000 0.50043  0.89978  0.50043  Biso   1.000  Hf
  Hf93     1.0000 0.75181  0.64880  0.75181  Biso   1.000  Hf
  Hf94     1.0000 0.74939  0.60033  0.50043  Biso   1.000  Hf
  Hf95     1.0000 0.75181  0.85131  0.49801  Biso   1.000  Hf
  Hf96     1.0000 0.74939  0.89978  0.74939  Biso   1.000  Hf
  Ca1      1.0000 0.12492  0.25005  0.12491  Biso   1.000  Ca
