data_image0
_cell_length_a       4.97771
_cell_length_b       10.3796
_cell_length_c       10.0461
_cell_angle_alpha    89.9775
_cell_angle_beta     89.5625
_cell_angle_gamma    90.0678

_symmetry_space_group_name_H-M    "P 1"
_symmetry_int_tables_number       1

loop_
  _symmetry_equiv_pos_as_xyz
  'x, y, z'

loop_
  _atom_site_label
  _atom_site_occupancy
  _atom_site_fract_x
  _atom_site_fract_y
  _atom_site_fract_z
  _atom_site_thermal_displace_type
  _atom_site_B_iso_or_equiv
  _atom_site_type_symbol
  Cd1      1.0000 0.25214  0.01894  0.11572  Biso   1.000  Cd
  Hf1      1.0000 0.26469  0.01737  0.62912  Biso   1.000  Hf
  Hf2      1.0000 0.27126  0.51588  0.12760  Biso   1.000  Hf
  Hf3      1.0000 0.26777  0.51719  0.62677  Biso   1.000  Hf
  Hf4      1.0000 0.27277  0.23168  0.37765  Biso   1.000  Hf
  Hf5      1.0000 0.26463  0.23386  0.87340  Biso   1.000  Hf
  Hf6      1.0000 0.27126  0.73456  0.37739  Biso   1.000  Hf
  Hf7      1.0000 0.26751  0.73183  0.87718  Biso   1.000  Hf
  Hf8      1.0000 0.72218  0.26597  0.12916  Biso   1.000  Hf
  Hf9      1.0000 0.73193  0.26760  0.62536  Biso   1.000  Hf
  Hf10     1.0000 0.73388  0.76351  0.12558  Biso   1.000  Hf
  Hf11     1.0000 0.73143  0.76663  0.62539  Biso   1.000  Hf
  Hf12     1.0000 0.73147  0.48362  0.37773  Biso   1.000  Hf
  Hf13     1.0000 0.72974  0.48251  0.87646  Biso   1.000  Hf
  Hf14     1.0000 0.72851  0.98479  0.37759  Biso   1.000  Hf
  Hf15     1.0000 0.72574  0.98117  0.87372  Biso   1.000  Hf
  Hf16     1.0000 0.08008  0.19463  0.19350  Biso   1.000  Hf
  Hf17     1.0000 0.08169  0.19094  0.68503  Biso   1.000  Hf
  Hf18     1.0000 0.07862  0.68469  0.19547  Biso   1.000  Hf
  Hf19     1.0000 0.07070  0.68417  0.69544  Biso   1.000  Hf
  Hf20     1.0000 0.07356  0.06529  0.44397  Biso   1.000  Hf
  Hf21     1.0000 0.07378  0.06537  0.91057  Biso   1.000  Hf
  Hf22     1.0000 0.07367  0.56544  0.44517  Biso   1.000  Hf
  Hf23     1.0000 0.06985  0.56434  0.94667  Biso   1.000  Hf
  Hf24     1.0000 0.92790  0.43247  0.19527  Biso   1.000  Hf
  Hf25     1.0000 0.92646  0.43539  0.69530  Biso   1.000  Hf
  Hf26     1.0000 0.91047  0.93577  0.19375  Biso   1.000  Hf
  Hf27     1.0000 0.91816  0.93465  0.68854  Biso   1.000  Hf
  Hf28     1.0000 0.92772  0.31687  0.44354  Biso   1.000  Hf
  Hf29     1.0000 0.92086  0.31372  0.94337  Biso   1.000  Hf
  Hf30     1.0000 0.93034  0.81552  0.44585  Biso   1.000  Hf
  Hf31     1.0000 0.92531  0.81515  0.94307  Biso   1.000  Hf
  Hf32     1.0000 0.56419  0.12832  0.25889  Biso   1.000  Hf
  Hf33     1.0000 0.54697  0.12035  0.75025  Biso   1.000  Hf
  Hf34     1.0000 0.54573  0.61467  0.24944  Biso   1.000  Hf
  Hf35     1.0000 0.53957  0.61773  0.75066  Biso   1.000  Hf
  Hf36     1.0000 0.53994  0.13123  0.50408  Biso   1.000  Hf
  Hf37     1.0000 0.54524  0.13037  0.99909  Biso   1.000  Hf
  Hf38     1.0000 0.54144  0.63229  0.50018  Biso   1.000  Hf
  Hf39     1.0000 0.54107  0.62906  0.00004  Biso   1.000  Hf
  Hf40     1.0000 0.45945  0.38219  0.50114  Biso   1.000  Hf
  Hf41     1.0000 0.45539  0.38046  0.00137  Biso   1.000  Hf
  Hf42     1.0000 0.45515  0.88285  0.50259  Biso   1.000  Hf
  Hf43     1.0000 0.46064  0.87402  0.00058  Biso   1.000  Hf
  Hf44     1.0000 0.45486  0.37132  0.25210  Biso   1.000  Hf
  Hf45     1.0000 0.45765  0.36955  0.75022  Biso   1.000  Hf
  Hf46     1.0000 0.48447  0.85989  0.25606  Biso   1.000  Hf
  Hf47     1.0000 0.45389  0.86761  0.75051  Biso   1.000  Hf
