data_image0
_cell_length_a       10.0204
_cell_length_b       10.3838
_cell_length_c       10.0748
_cell_angle_alpha    89.6023
_cell_angle_beta     89.8252
_cell_angle_gamma    90.3923

_symmetry_space_group_name_H-M    "P 1"
_symmetry_int_tables_number       1

loop_
  _symmetry_equiv_pos_as_xyz
  'x, y, z'

loop_
  _atom_site_label
  _atom_site_occupancy
  _atom_site_fract_x
  _atom_site_fract_y
  _atom_site_fract_z
  _atom_site_thermal_displace_type
  _atom_site_B_iso_or_equiv
  _atom_site_type_symbol
  Hf1      1.0000 0.14488  0.00124  0.10879  Biso   1.000  Hf
  Hf2      1.0000 0.13045  0.23062  0.40345  Biso   1.000  Hf
  Hf3      1.0000 0.36909  0.26631  0.12096  Biso   1.000  Hf
  Hf4      1.0000 0.36846  0.48456  0.37614  Biso   1.000  Hf
  Hf5      1.0000 0.96008  0.18588  0.28552  Biso   1.000  Hf
  Hf6      1.0000 0.04118  0.06115  0.46616  Biso   1.000  Hf
  Hf7      1.0000 0.46153  0.43439  0.19410  Biso   1.000  Hf
  Hf8      1.0000 0.46496  0.31824  0.44635  Biso   1.000  Hf
  Hf9      1.0000 0.25084  0.11393  0.25388  Biso   1.000  Hf
  Hf10     1.0000 0.27682  0.13088  0.50559  Biso   1.000  Hf
  Hf11     1.0000 0.23671  0.38381  0.50378  Biso   1.000  Hf
  Hf12     1.0000 0.22536  0.36561  0.25560  Biso   1.000  Hf
  Hf13     1.0000 0.13930  0.01284  0.63516  Biso   1.000  Hf
  Hf14     1.0000 0.13537  0.22911  0.87126  Biso   1.000  Hf
  Hf15     1.0000 0.37046  0.26754  0.62944  Biso   1.000  Hf
  Hf16     1.0000 0.36890  0.48616  0.87188  Biso   1.000  Hf
  Hf17     1.0000 0.03970  0.18411  0.69205  Biso   1.000  Hf
  Hf18     1.0000 0.05083  0.04989  0.92149  Biso   1.000  Hf
  Hf19     1.0000 0.46804  0.43414  0.69505  Biso   1.000  Hf
  Hf20     1.0000 0.46483  0.31470  0.94102  Biso   1.000  Hf
  Hf21     1.0000 0.27604  0.11813  0.75105  Biso   1.000  Hf
  Hf22     1.0000 0.29067  0.12055  0.99541  Biso   1.000  Hf
  Hf23     1.0000 0.23631  0.39209  0.99811  Biso   1.000  Hf
  Hf24     1.0000 0.23189  0.36650  0.74979  Biso   1.000  Hf
  Hf25     1.0000 0.13549  0.52814  0.12408  Biso   1.000  Hf
  Hf26     1.0000 0.13454  0.73698  0.37688  Biso   1.000  Hf
  Hf27     1.0000 0.36981  0.76310  0.12468  Biso   1.000  Hf
  Hf28     1.0000 0.36394  0.98538  0.37480  Biso   1.000  Hf
  Hf29     1.0000 0.03730  0.68762  0.19375  Biso   1.000  Hf
  Hf30     1.0000 0.03542  0.57150  0.44114  Biso   1.000  Hf
  Hf31     1.0000 0.45971  0.93407  0.19449  Biso   1.000  Hf
  Hf32     1.0000 0.46637  0.81726  0.44167  Biso   1.000  Hf
  Hf33     1.0000 0.27276  0.61797  0.24808  Biso   1.000  Hf
  Hf34     1.0000 0.27081  0.63271  0.49691  Biso   1.000  Hf
  Hf35     1.0000 0.23209  0.88292  0.49900  Biso   1.000  Hf
  Hf36     1.0000 0.23187  0.86363  0.24568  Biso   1.000  Hf
  Hf37     1.0000 0.13085  0.51337  0.62250  Biso   1.000  Hf
  Hf38     1.0000 0.13309  0.73114  0.86882  Biso   1.000  Hf
  Hf39     1.0000 0.37025  0.76389  0.62082  Biso   1.000  Hf
  Hf40     1.0000 0.37429  0.97961  0.87045  Biso   1.000  Hf
  Hf41     1.0000 0.03815  0.68527  0.68788  Biso   1.000  Hf
  Hf42     1.0000 0.03566  0.56686  0.94586  Biso   1.000  Hf
  Hf43     1.0000 0.47008  0.93174  0.69073  Biso   1.000  Hf
  Hf44     1.0000 0.47388  0.81733  0.94912  Biso   1.000  Hf
  Hf45     1.0000 0.26848  0.61394  0.74581  Biso   1.000  Hf
  Hf46     1.0000 0.27043  0.63525  0.99625  Biso   1.000  Hf
  Hf47     1.0000 0.23770  0.87412  0.99223  Biso   1.000  Hf
  Hf48     1.0000 0.23768  0.86324  0.74705  Biso   1.000  Hf
  Hf49     1.0000 0.62785  0.00752  0.11906  Biso   1.000  Hf
  Hf50     1.0000 0.62901  0.23131  0.37930  Biso   1.000  Hf
  Hf51     1.0000 0.83428  0.26236  0.12833  Biso   1.000  Hf
  Hf52     1.0000 0.86734  0.48370  0.37621  Biso   1.000  Hf
  Hf53     1.0000 0.52647  0.18103  0.19460  Biso   1.000  Hf
  Hf54     1.0000 0.53346  0.06596  0.44660  Biso   1.000  Hf
  Hf55     1.0000 0.96218  0.43036  0.18787  Biso   1.000  Hf
  Hf56     1.0000 0.97880  0.33740  0.47310  Biso   1.000  Hf
  Hf57     1.0000 0.74317  0.11127  0.24610  Biso   1.000  Hf
  Hf58     1.0000 0.77295  0.13983  0.49744  Biso   1.000  Hf
  Hf59     1.0000 0.73315  0.38410  0.50062  Biso   1.000  Hf
  Hf60     1.0000 0.72103  0.37083  0.25456  Biso   1.000  Hf
  Hf61     1.0000 0.63986  0.01570  0.62185  Biso   1.000  Hf
  Hf62     1.0000 0.63384  0.23210  0.87153  Biso   1.000  Hf
  Hf63     1.0000 0.86763  0.27090  0.63235  Biso   1.000  Hf
  Hf64     1.0000 0.86549  0.48234  0.87855  Biso   1.000  Hf
  Hf65     1.0000 0.54087  0.18402  0.69175  Biso   1.000  Hf
  Hf66     1.0000 0.54308  0.06295  0.93714  Biso   1.000  Hf
  Hf67     1.0000 0.96396  0.43933  0.70300  Biso   1.000  Hf
  Hf68     1.0000 0.95009  0.31067  0.92765  Biso   1.000  Hf
  Hf69     1.0000 0.77359  0.11669  0.74837  Biso   1.000  Hf
  Hf70     1.0000 0.77052  0.12816  0.99787  Biso   1.000  Hf
  Hf71     1.0000 0.72048  0.38111  0.00273  Biso   1.000  Hf
  Hf72     1.0000 0.72786  0.37045  0.75041  Biso   1.000  Hf
  Hf73     1.0000 0.63172  0.52027  0.12796  Biso   1.000  Hf
  Hf74     1.0000 0.63873  0.73827  0.37539  Biso   1.000  Hf
  Hf75     1.0000 0.86664  0.76763  0.12443  Biso   1.000  Hf
  Hf76     1.0000 0.87841  0.00286  0.36302  Biso   1.000  Hf
  Hf77     1.0000 0.53845  0.68570  0.19694  Biso   1.000  Hf
  Hf78     1.0000 0.53675  0.56862  0.44522  Biso   1.000  Hf
  Hf79     1.0000 0.96662  0.94421  0.18231  Biso   1.000  Hf
  Hf80     1.0000 0.96557  0.82293  0.43584  Biso   1.000  Hf
  Hf81     1.0000 0.77276  0.61783  0.24960  Biso   1.000  Hf
  Hf82     1.0000 0.77216  0.63389  0.49725  Biso   1.000  Hf
  Hf83     1.0000 0.73447  0.88812  0.49446  Biso   1.000  Hf
  Hf84     1.0000 0.73340  0.86738  0.24495  Biso   1.000  Hf
  Hf85     1.0000 0.63711  0.51780  0.62478  Biso   1.000  Hf
  Hf86     1.0000 0.63884  0.73252  0.87363  Biso   1.000  Hf
  Hf87     1.0000 0.86922  0.76990  0.61821  Biso   1.000  Hf
  Hf88     1.0000 0.86997  0.98103  0.87157  Biso   1.000  Hf
  Hf89     1.0000 0.53628  0.68244  0.69634  Biso   1.000  Hf
  Hf90     1.0000 0.53535  0.56828  0.94803  Biso   1.000  Hf
  Hf91     1.0000 0.96755  0.92934  0.69535  Biso   1.000  Hf
  Hf92     1.0000 0.96721  0.81306  0.94477  Biso   1.000  Hf
  Hf93     1.0000 0.77207  0.61843  0.74844  Biso   1.000  Hf
  Hf94     1.0000 0.77025  0.63214  0.00122  Biso   1.000  Hf
  Hf95     1.0000 0.73398  0.87990  0.99618  Biso   1.000  Hf
  Hf96     1.0000 0.73361  0.86698  0.74586  Biso   1.000  Hf
  Cd1      1.0000 0.08917  0.25316  0.12801  Biso   1.000  Cd
