data_image0
_cell_length_a       5.07472
_cell_length_b       10.2913
_cell_length_c       10.4719
_cell_angle_alpha    89.9628
_cell_angle_beta     80.4101
_cell_angle_gamma    90.0496

_symmetry_space_group_name_H-M    "P 1"
_symmetry_int_tables_number       1

loop_
  _symmetry_equiv_pos_as_xyz
  'x, y, z'

loop_
  _atom_site_label
  _atom_site_occupancy
  _atom_site_fract_x
  _atom_site_fract_y
  _atom_site_fract_z
  _atom_site_thermal_displace_type
  _atom_site_B_iso_or_equiv
  _atom_site_type_symbol
  Cd1      1.0000 0.26671  0.01456  0.14800  Biso   1.000  Cd
  Hf1      1.0000 0.27798  0.02102  0.64584  Biso   1.000  Hf
  Hf2      1.0000 0.27623  0.51947  0.14448  Biso   1.000  Hf
  Hf3      1.0000 0.27969  0.52129  0.64611  Biso   1.000  Hf
  Hf4      1.0000 0.27855  0.22976  0.39559  Biso   1.000  Hf
  Hf5      1.0000 0.28128  0.22807  0.89633  Biso   1.000  Hf
  Hf6      1.0000 0.27579  0.72628  0.39557  Biso   1.000  Hf
  Hf7      1.0000 0.28226  0.73003  0.89454  Biso   1.000  Hf
  Hf8      1.0000 0.71514  0.26674  0.10382  Biso   1.000  Hf
  Hf9      1.0000 0.71952  0.27154  0.60413  Biso   1.000  Hf
  Hf10     1.0000 0.72102  0.76873  0.10209  Biso   1.000  Hf
  Hf11     1.0000 0.72265  0.77172  0.60335  Biso   1.000  Hf
  Hf12     1.0000 0.72025  0.47803  0.35276  Biso   1.000  Hf
  Hf13     1.0000 0.72427  0.47818  0.85415  Biso   1.000  Hf
  Hf14     1.0000 0.71407  0.98003  0.35671  Biso   1.000  Hf
  Hf15     1.0000 0.72162  0.98043  0.85447  Biso   1.000  Hf
  O1       1.0000 0.07620  0.18107  0.07938  Biso   1.000  O
  O2       1.0000 0.06858  0.17024  0.58219  Biso   1.000  O
  O3       1.0000 0.07377  0.66928  0.07863  Biso   1.000  O
  O4       1.0000 0.06997  0.66747  0.58020  Biso   1.000  O
  O5       1.0000 0.06189  0.08038  0.34756  Biso   1.000  O
  O6       1.0000 0.07434  0.08114  0.82919  Biso   1.000  O
  O7       1.0000 0.06862  0.58078  0.32848  Biso   1.000  O
  O8       1.0000 0.07160  0.58217  0.82878  Biso   1.000  O
  O9       1.0000 0.92439  0.41921  0.16910  Biso   1.000  O
  O10      1.0000 0.93192  0.41763  0.67054  Biso   1.000  O
  O11      1.0000 0.89840  0.92064  0.17304  Biso   1.000  O
  O12      1.0000 0.93001  0.91825  0.66989  Biso   1.000  O
  O13      1.0000 0.92797  0.33288  0.42100  Biso   1.000  O
  O14      1.0000 0.93420  0.33365  0.91927  Biso   1.000  O
  O15      1.0000 0.92935  0.83011  0.42008  Biso   1.000  O
  O16      1.0000 0.93687  0.83344  0.91974  Biso   1.000  O
  O17      1.0000 0.56088  0.13265  0.24740  Biso   1.000  O
  O18      1.0000 0.55352  0.12838  0.73833  Biso   1.000  O
  O19      1.0000 0.55156  0.62577  0.23882  Biso   1.000  O
  O20      1.0000 0.55450  0.62929  0.73950  Biso   1.000  O
  O21      1.0000 0.54736  0.12233  0.49331  Biso   1.000  O
  O22      1.0000 0.57082  0.12754  0.98145  Biso   1.000  O
  O23      1.0000 0.55208  0.62056  0.48990  Biso   1.000  O
  O24      1.0000 0.55317  0.61964  0.98913  Biso   1.000  O
  O25      1.0000 0.44967  0.38050  0.00830  Biso   1.000  O
  O26      1.0000 0.44582  0.37947  0.50939  Biso   1.000  O
  O27      1.0000 0.46213  0.87345  0.00209  Biso   1.000  O
  O28      1.0000 0.44662  0.87882  0.51002  Biso   1.000  O
  O29      1.0000 0.44273  0.37170  0.25909  Biso   1.000  O
  O30      1.0000 0.45016  0.37135  0.75886  Biso   1.000  O
  O31      1.0000 0.45515  0.86289  0.26230  Biso   1.000  O
  O32      1.0000 0.44869  0.87144  0.75709  Biso   1.000  O
