data_image0
_cell_length_a       9.96702
_cell_length_b       5.18656
_cell_length_c       10.0507
_cell_angle_alpha    90.0221
_cell_angle_beta     89.6682
_cell_angle_gamma    89.993

_symmetry_space_group_name_H-M    "P 1"
_symmetry_int_tables_number       1

loop_
  _symmetry_equiv_pos_as_xyz
  'x, y, z'

loop_
  _atom_site_label
  _atom_site_occupancy
  _atom_site_fract_x
  _atom_site_fract_y
  _atom_site_fract_z
  _atom_site_thermal_displace_type
  _atom_site_B_iso_or_equiv
  _atom_site_type_symbol
  Cd1      1.0000 0.12590  0.03787  0.11742  Biso   1.000  Cd
  Hf1      1.0000 0.13368  0.03697  0.63003  Biso   1.000  Hf
  Hf2      1.0000 0.63490  0.03053  0.12584  Biso   1.000  Hf
  Hf3      1.0000 0.63192  0.03224  0.62429  Biso   1.000  Hf
  Hf4      1.0000 0.13887  0.46688  0.37768  Biso   1.000  Hf
  Hf5      1.0000 0.13360  0.46965  0.87586  Biso   1.000  Hf
  Hf6      1.0000 0.63231  0.46662  0.37559  Biso   1.000  Hf
  Hf7      1.0000 0.63348  0.46281  0.87478  Biso   1.000  Hf
  Hf8      1.0000 0.36432  0.53243  0.13160  Biso   1.000  Hf
  Hf9      1.0000 0.36584  0.53571  0.62770  Biso   1.000  Hf
  Hf10     1.0000 0.86293  0.52842  0.12326  Biso   1.000  Hf
  Hf11     1.0000 0.86507  0.53208  0.62257  Biso   1.000  Hf
  Hf12     1.0000 0.36221  0.96796  0.37613  Biso   1.000  Hf
  Hf13     1.0000 0.36502  0.96562  0.87812  Biso   1.000  Hf
  Hf14     1.0000 0.86736  0.96915  0.37819  Biso   1.000  Hf
  Hf15     1.0000 0.86325  0.96253  0.87126  Biso   1.000  Hf
  Hf16     1.0000 0.03513  0.38504  0.19808  Biso   1.000  Hf
  Hf17     1.0000 0.03895  0.38108  0.68801  Biso   1.000  Hf
  Hf18     1.0000 0.54108  0.37059  0.19261  Biso   1.000  Hf
  Hf19     1.0000 0.53573  0.36756  0.69459  Biso   1.000  Hf
  Hf20     1.0000 0.03657  0.13062  0.44626  Biso   1.000  Hf
  Hf21     1.0000 0.03547  0.13389  0.91359  Biso   1.000  Hf
  Hf22     1.0000 0.53560  0.13224  0.44414  Biso   1.000  Hf
  Hf23     1.0000 0.53696  0.12692  0.94470  Biso   1.000  Hf
  Hf24     1.0000 0.46801  0.86545  0.19752  Biso   1.000  Hf
  Hf25     1.0000 0.46350  0.86860  0.69654  Biso   1.000  Hf
  Hf26     1.0000 0.95428  0.86536  0.19518  Biso   1.000  Hf
  Hf27     1.0000 0.95953  0.87041  0.68751  Biso   1.000  Hf
  Hf28     1.0000 0.46519  0.63340  0.44825  Biso   1.000  Hf
  Hf29     1.0000 0.46263  0.62735  0.94388  Biso   1.000  Hf
  Hf30     1.0000 0.96390  0.63112  0.44230  Biso   1.000  Hf
  Hf31     1.0000 0.96289  0.63367  0.94397  Biso   1.000  Hf
  Hf32     1.0000 0.28184  0.25005  0.25722  Biso   1.000  Hf
  Hf33     1.0000 0.27312  0.24047  0.75221  Biso   1.000  Hf
  Hf34     1.0000 0.77134  0.23222  0.24888  Biso   1.000  Hf
  Hf35     1.0000 0.76943  0.23398  0.74703  Biso   1.000  Hf
  Hf36     1.0000 0.27052  0.26252  0.50480  Biso   1.000  Hf
  Hf37     1.0000 0.27283  0.26399  0.99971  Biso   1.000  Hf
  Hf38     1.0000 0.76897  0.26637  0.49812  Biso   1.000  Hf
  Hf39     1.0000 0.77210  0.25811  0.99723  Biso   1.000  Hf
  Hf40     1.0000 0.22832  0.76552  0.50419  Biso   1.000  Hf
  Hf41     1.0000 0.23323  0.75314  0.00145  Biso   1.000  Hf
  Hf42     1.0000 0.72928  0.76558  0.49865  Biso   1.000  Hf
  Hf43     1.0000 0.72653  0.75714  0.99898  Biso   1.000  Hf
  Hf44     1.0000 0.23651  0.72885  0.25767  Biso   1.000  Hf
  Hf45     1.0000 0.22829  0.74050  0.75165  Biso   1.000  Hf
  Hf46     1.0000 0.73067  0.73399  0.24908  Biso   1.000  Hf
  Hf47     1.0000 0.72783  0.73248  0.74818  Biso   1.000  Hf
