data_image0
_cell_length_a       10.0786
_cell_length_b       10.2981
_cell_length_c       10.0786
_cell_angle_alpha    90
_cell_angle_beta     89.999
_cell_angle_gamma    90.0001

_symmetry_space_group_name_H-M    "P 1"
_symmetry_int_tables_number       1

loop_
  _symmetry_equiv_pos_as_xyz
  'x, y, z'

loop_
  _atom_site_label
  _atom_site_occupancy
  _atom_site_fract_x
  _atom_site_fract_y
  _atom_site_fract_z
  _atom_site_thermal_displace_type
  _atom_site_B_iso_or_equiv
  _atom_site_type_symbol
  Hf1      1.0000 0.12491  0.97556  0.12491  Biso   1.000  Hf
  Hf2      1.0000 0.12491  0.25006  0.38975  Biso   1.000  Hf
  Hf3      1.0000 0.38975  0.25006  0.12492  Biso   1.000  Hf
  Hf4      1.0000 0.37690  0.00675  0.37690  Biso   1.000  Hf
  Hf5      1.0000 0.96899  0.16236  0.96899  Biso   1.000  Hf
  Hf6      1.0000 0.00261  0.08433  0.24721  Biso   1.000  Hf
  Hf7      1.0000 0.96898  0.33774  0.28084  Biso   1.000  Hf
  Hf8      1.0000 0.00258  0.41577  0.00259  Biso   1.000  Hf
  Hf9      1.0000 0.28083  0.16237  0.28083  Biso   1.000  Hf
  Hf10     1.0000 0.24721  0.08433  0.00261  Biso   1.000  Hf
  Hf11     1.0000 0.28083  0.33773  0.96898  Biso   1.000  Hf
  Hf12     1.0000 0.24724  0.41577  0.24722  Biso   1.000  Hf
  Hf13     1.0000 0.12491  0.99411  0.62491  Biso   1.000  Hf
  Hf14     1.0000 0.12490  0.25006  0.86006  Biso   1.000  Hf
  Hf15     1.0000 0.37480  0.25005  0.62491  Biso   1.000  Hf
  Hf16     1.0000 0.37614  0.00041  0.87368  Biso   1.000  Hf
  Hf17     1.0000 0.99546  0.14549  0.49790  Biso   1.000  Hf
  Hf18     1.0000 0.00154  0.10172  0.74083  Biso   1.000  Hf
  Hf19     1.0000 0.99545  0.35462  0.75191  Biso   1.000  Hf
  Hf20     1.0000 0.00154  0.39839  0.50899  Biso   1.000  Hf
  Hf21     1.0000 0.25436  0.14549  0.75192  Biso   1.000  Hf
  Hf22     1.0000 0.24828  0.10172  0.50899  Biso   1.000  Hf
  Hf23     1.0000 0.25436  0.35462  0.49791  Biso   1.000  Hf
  Hf24     1.0000 0.24827  0.39839  0.74083  Biso   1.000  Hf
  Hf25     1.0000 0.12491  0.52448  0.12491  Biso   1.000  Hf
  Hf26     1.0000 0.12491  0.75005  0.38101  Biso   1.000  Hf
  Hf27     1.0000 0.38101  0.75005  0.12492  Biso   1.000  Hf
  Hf28     1.0000 0.37615  0.49970  0.37615  Biso   1.000  Hf
  Hf29     1.0000 0.00597  0.66003  0.00597  Biso   1.000  Hf
  Hf30     1.0000 0.99457  0.59723  0.25525  Biso   1.000  Hf
  Hf31     1.0000 0.00597  0.84005  0.24385  Biso   1.000  Hf
  Hf32     1.0000 0.99456  0.90286  0.99456  Biso   1.000  Hf
  Hf33     1.0000 0.24385  0.66004  0.24385  Biso   1.000  Hf
  Hf34     1.0000 0.25525  0.59723  0.99456  Biso   1.000  Hf
  Hf35     1.0000 0.24385  0.84005  0.00597  Biso   1.000  Hf
  Hf36     1.0000 0.25526  0.90286  0.25526  Biso   1.000  Hf
  Hf37     1.0000 0.12491  0.50600  0.62491  Biso   1.000  Hf
  Hf38     1.0000 0.12490  0.75005  0.86880  Biso   1.000  Hf
  Hf39     1.0000 0.37740  0.75006  0.62491  Biso   1.000  Hf
  Hf40     1.0000 0.37690  0.49336  0.87292  Biso   1.000  Hf
  Hf41     1.0000 0.99848  0.64813  0.50409  Biso   1.000  Hf
  Hf42     1.0000 0.00318  0.60321  0.75527  Biso   1.000  Hf
  Hf43     1.0000 0.99847  0.85198  0.74572  Biso   1.000  Hf
  Hf44     1.0000 0.00318  0.89690  0.49454  Biso   1.000  Hf
  Hf45     1.0000 0.25134  0.64813  0.74572  Biso   1.000  Hf
  Hf46     1.0000 0.24664  0.60321  0.49455  Biso   1.000  Hf
  Hf47     1.0000 0.25134  0.85198  0.50410  Biso   1.000  Hf
  Hf48     1.0000 0.24664  0.89690  0.75528  Biso   1.000  Hf
  Hf49     1.0000 0.62491  0.99411  0.12491  Biso   1.000  Hf
  Hf50     1.0000 0.62491  0.25006  0.37480  Biso   1.000  Hf
  Hf51     1.0000 0.86007  0.25007  0.12490  Biso   1.000  Hf
  Hf52     1.0000 0.87368  0.00041  0.37614  Biso   1.000  Hf
  Hf53     1.0000 0.49790  0.14549  0.99546  Biso   1.000  Hf
  Hf54     1.0000 0.50899  0.10172  0.24828  Biso   1.000  Hf
  Hf55     1.0000 0.49792  0.35462  0.25436  Biso   1.000  Hf
  Hf56     1.0000 0.50898  0.39839  0.00155  Biso   1.000  Hf
  Hf57     1.0000 0.75192  0.14549  0.25436  Biso   1.000  Hf
  Hf58     1.0000 0.74083  0.10172  0.00154  Biso   1.000  Hf
  Hf59     1.0000 0.75190  0.35462  0.99545  Biso   1.000  Hf
  Hf60     1.0000 0.74084  0.39839  0.24827  Biso   1.000  Hf
  Hf61     1.0000 0.62491  0.00105  0.62491  Biso   1.000  Hf
  Hf62     1.0000 0.62490  0.25005  0.87502  Biso   1.000  Hf
  Hf63     1.0000 0.87502  0.25005  0.62490  Biso   1.000  Hf
  Hf64     1.0000 0.87292  0.00675  0.87292  Biso   1.000  Hf
  Hf65     1.0000 0.49905  0.15014  0.49905  Biso   1.000  Hf
  Hf66     1.0000 0.50117  0.10113  0.74865  Biso   1.000  Hf
  Hf67     1.0000 0.49904  0.34997  0.75077  Biso   1.000  Hf
  Hf68     1.0000 0.50117  0.39898  0.50117  Biso   1.000  Hf
  Hf69     1.0000 0.75077  0.15014  0.75077  Biso   1.000  Hf
  Hf70     1.0000 0.74865  0.10113  0.50117  Biso   1.000  Hf
  Hf71     1.0000 0.75077  0.34997  0.49905  Biso   1.000  Hf
  Hf72     1.0000 0.74864  0.39898  0.74865  Biso   1.000  Hf
  Hf73     1.0000 0.62491  0.50600  0.12491  Biso   1.000  Hf
  Hf74     1.0000 0.62491  0.75006  0.37740  Biso   1.000  Hf
  Hf75     1.0000 0.86880  0.75005  0.12490  Biso   1.000  Hf
  Hf76     1.0000 0.87292  0.49336  0.37690  Biso   1.000  Hf
  Hf77     1.0000 0.50409  0.64813  0.99848  Biso   1.000  Hf
  Hf78     1.0000 0.49455  0.60321  0.24664  Biso   1.000  Hf
  Hf79     1.0000 0.50410  0.85198  0.25134  Biso   1.000  Hf
  Hf80     1.0000 0.49455  0.89690  0.00318  Biso   1.000  Hf
  Hf81     1.0000 0.74572  0.64813  0.25134  Biso   1.000  Hf
  Hf82     1.0000 0.75526  0.60321  0.00318  Biso   1.000  Hf
  Hf83     1.0000 0.74572  0.85198  0.99847  Biso   1.000  Hf
  Hf84     1.0000 0.75527  0.89690  0.24664  Biso   1.000  Hf
  Hf85     1.0000 0.62491  0.49906  0.62491  Biso   1.000  Hf
  Hf86     1.0000 0.62490  0.75006  0.87241  Biso   1.000  Hf
  Hf87     1.0000 0.87241  0.75006  0.62491  Biso   1.000  Hf
  Hf88     1.0000 0.87367  0.49970  0.87367  Biso   1.000  Hf
  Hf89     1.0000 0.49659  0.64880  0.49659  Biso   1.000  Hf
  Hf90     1.0000 0.50273  0.60138  0.74709  Biso   1.000  Hf
  Hf91     1.0000 0.49659  0.85132  0.75323  Biso   1.000  Hf
  Hf92     1.0000 0.50273  0.89873  0.50273  Biso   1.000  Hf
  Hf93     1.0000 0.75323  0.64880  0.75323  Biso   1.000  Hf
  Hf94     1.0000 0.74709  0.60138  0.50273  Biso   1.000  Hf
  Hf95     1.0000 0.75323  0.85132  0.49659  Biso   1.000  Hf
  Hf96     1.0000 0.74709  0.89873  0.74709  Biso   1.000  Hf
  Cd1      1.0000 0.12491  0.25003  0.12491  Biso   1.000  Cd
