data_image0
_cell_length_a       5.00715
_cell_length_b       10.1898
_cell_length_c       10.0552
_cell_angle_alpha    89.9967
_cell_angle_beta     90.0013
_cell_angle_gamma    90.0073

_symmetry_space_group_name_H-M    "P 1"
_symmetry_int_tables_number       1

loop_
  _symmetry_equiv_pos_as_xyz
  'x, y, z'

loop_
  _atom_site_label
  _atom_site_occupancy
  _atom_site_fract_x
  _atom_site_fract_y
  _atom_site_fract_z
  _atom_site_thermal_displace_type
  _atom_site_B_iso_or_equiv
  _atom_site_type_symbol
  Cd1      1.0000 0.25243  0.99981  0.12513  Biso   1.000  Cd
  Hf1      1.0000 0.25245  0.99978  0.62510  Biso   1.000  Hf
  Hf2      1.0000 0.25245  0.49977  0.12508  Biso   1.000  Hf
  Hf3      1.0000 0.25244  0.49978  0.62509  Biso   1.000  Hf
  Hf4      1.0000 0.25120  0.25116  0.37560  Biso   1.000  Hf
  Hf5      1.0000 0.25362  0.25113  0.87455  Biso   1.000  Hf
  Hf6      1.0000 0.25368  0.74841  0.37558  Biso   1.000  Hf
  Hf7      1.0000 0.25137  0.74844  0.87456  Biso   1.000  Hf
  Hf8      1.0000 0.75241  0.25174  0.12510  Biso   1.000  Hf
  Hf9      1.0000 0.75246  0.24773  0.62507  Biso   1.000  Hf
  Hf10     1.0000 0.75250  0.74783  0.12508  Biso   1.000  Hf
  Hf11     1.0000 0.75248  0.75184  0.62507  Biso   1.000  Hf
  Hf12     1.0000 0.75241  0.99977  0.37332  Biso   1.000  Hf
  Hf13     1.0000 0.75244  0.99979  0.87691  Biso   1.000  Hf
  Hf14     1.0000 0.75245  0.49980  0.37605  Biso   1.000  Hf
  Hf15     1.0000 0.75244  0.49979  0.87411  Biso   1.000  Hf
  Hf16     1.0000 0.99696  0.14536  0.99613  Biso   1.000  Hf
  Hf17     1.0000 0.01370  0.14769  0.50466  Biso   1.000  Hf
  Hf18     1.0000 0.01440  0.64127  0.00283  Biso   1.000  Hf
  Hf19     1.0000 0.00214  0.64634  0.50226  Biso   1.000  Hf
  Hf20     1.0000 0.98977  0.11638  0.25653  Biso   1.000  Hf
  Hf21     1.0000 0.99477  0.10213  0.74949  Biso   1.000  Hf
  Hf22     1.0000 0.99299  0.60543  0.25036  Biso   1.000  Hf
  Hf23     1.0000 0.00408  0.60269  0.75225  Biso   1.000  Hf
  Hf24     1.0000 0.01433  0.35836  0.24734  Biso   1.000  Hf
  Hf25     1.0000 0.00209  0.35321  0.74791  Biso   1.000  Hf
  Hf26     1.0000 0.99713  0.85428  0.25404  Biso   1.000  Hf
  Hf27     1.0000 0.01370  0.85185  0.74555  Biso   1.000  Hf
  Hf28     1.0000 0.99286  0.39418  0.99984  Biso   1.000  Hf
  Hf29     1.0000 0.00402  0.39686  0.49792  Biso   1.000  Hf
  Hf30     1.0000 0.99017  0.88329  0.99366  Biso   1.000  Hf
  Hf31     1.0000 0.99471  0.89742  0.50070  Biso   1.000  Hf
  Hf32     1.0000 0.50765  0.14528  0.25402  Biso   1.000  Hf
  Hf33     1.0000 0.49130  0.14770  0.74557  Biso   1.000  Hf
  Hf34     1.0000 0.49061  0.64122  0.24734  Biso   1.000  Hf
  Hf35     1.0000 0.50281  0.64635  0.74791  Biso   1.000  Hf
  Hf36     1.0000 0.51484  0.11630  0.99367  Biso   1.000  Hf
  Hf37     1.0000 0.51024  0.10215  0.50071  Biso   1.000  Hf
  Hf38     1.0000 0.51202  0.60539  0.99983  Biso   1.000  Hf
  Hf39     1.0000 0.50085  0.60271  0.49792  Biso   1.000  Hf
  Hf40     1.0000 0.49047  0.35830  0.00286  Biso   1.000  Hf
  Hf41     1.0000 0.50272  0.35322  0.50229  Biso   1.000  Hf
  Hf42     1.0000 0.50805  0.85422  0.99608  Biso   1.000  Hf
  Hf43     1.0000 0.49126  0.85188  0.50462  Biso   1.000  Hf
  Hf44     1.0000 0.51196  0.39413  0.25037  Biso   1.000  Hf
  Hf45     1.0000 0.50080  0.39687  0.75227  Biso   1.000  Hf
  Hf46     1.0000 0.51500  0.88321  0.25648  Biso   1.000  Hf
  Hf47     1.0000 0.51026  0.89744  0.74944  Biso   1.000  Hf
