data_image0
_cell_length_a       5.04557
_cell_length_b       10.3753
_cell_length_c       10.131
_cell_angle_alpha    89.307
_cell_angle_beta     91.5928
_cell_angle_gamma    91.3324

_symmetry_space_group_name_H-M    "P 1"
_symmetry_int_tables_number       1

loop_
  _symmetry_equiv_pos_as_xyz
  'x, y, z'

loop_
  _atom_site_label
  _atom_site_occupancy
  _atom_site_fract_x
  _atom_site_fract_y
  _atom_site_fract_z
  _atom_site_thermal_displace_type
  _atom_site_B_iso_or_equiv
  _atom_site_type_symbol
  Hf1      1.0000 0.27768  0.99089  0.10172  Biso   1.000  Hf
  Hf2      1.0000 0.23942  0.22907  0.40836  Biso   1.000  Hf
  Hf3      1.0000 0.60012  0.25594  0.15402  Biso   1.000  Hf
  Hf4      1.0000 0.73283  0.48574  0.38038  Biso   1.000  Hf
  Hf5      1.0000 0.88855  0.18136  0.27696  Biso   1.000  Hf
  Hf6      1.0000 0.07230  0.05836  0.46542  Biso   1.000  Hf
  Hf7      1.0000 0.89758  0.42676  0.18589  Biso   1.000  Hf
  Hf8      1.0000 0.94533  0.33520  0.46816  Biso   1.000  Hf
  Hf9      1.0000 0.42122  0.10419  0.26192  Biso   1.000  Hf
  Hf10     1.0000 0.55839  0.13885  0.50619  Biso   1.000  Hf
  Hf11     1.0000 0.47610  0.38546  0.50683  Biso   1.000  Hf
  Hf12     1.0000 0.39708  0.37349  0.26852  Biso   1.000  Hf
  Hf13     1.0000 0.29769  0.01270  0.62934  Biso   1.000  Hf
  Hf14     1.0000 0.30054  0.23087  0.86198  Biso   1.000  Hf
  Hf15     1.0000 0.75877  0.27522  0.63907  Biso   1.000  Hf
  Hf16     1.0000 0.74107  0.48475  0.87298  Biso   1.000  Hf
  Hf17     1.0000 0.11590  0.18804  0.67608  Biso   1.000  Hf
  Hf18     1.0000 0.12793  0.05075  0.91345  Biso   1.000  Hf
  Hf19     1.0000 0.92771  0.45334  0.68805  Biso   1.000  Hf
  Hf20     1.0000 0.93235  0.30934  0.88209  Biso   1.000  Hf
  Hf21     1.0000 0.57364  0.11889  0.75437  Biso   1.000  Hf
  Hf22     1.0000 0.60142  0.11818  0.00910  Biso   1.000  Hf
  Hf23     1.0000 0.48154  0.38435  0.00094  Biso   1.000  Hf
  Hf24     1.0000 0.46461  0.37489  0.74856  Biso   1.000  Hf
  Hf25     1.0000 0.26024  0.52319  0.12768  Biso   1.000  Hf
  Hf26     1.0000 0.27579  0.74106  0.37592  Biso   1.000  Hf
  Hf27     1.0000 0.74317  0.76290  0.12695  Biso   1.000  Hf
  Hf28     1.0000 0.74409  0.00003  0.36406  Biso   1.000  Hf
  Hf29     1.0000 0.08081  0.68279  0.19574  Biso   1.000  Hf
  Hf30     1.0000 0.07405  0.57430  0.44086  Biso   1.000  Hf
  Hf31     1.0000 0.93661  0.94149  0.18806  Biso   1.000  Hf
  Hf32     1.0000 0.93612  0.82082  0.43578  Biso   1.000  Hf
  Hf33     1.0000 0.54738  0.61700  0.24922  Biso   1.000  Hf
  Hf34     1.0000 0.54562  0.63571  0.49654  Biso   1.000  Hf
  Hf35     1.0000 0.47653  0.88868  0.49475  Biso   1.000  Hf
  Hf36     1.0000 0.47753  0.86289  0.24132  Biso   1.000  Hf
  Hf37     1.0000 0.27465  0.51839  0.62101  Biso   1.000  Hf
  Hf38     1.0000 0.28566  0.73131  0.86967  Biso   1.000  Hf
  Hf39     1.0000 0.75344  0.76994  0.61730  Biso   1.000  Hf
  Hf40     1.0000 0.76393  0.97870  0.87120  Biso   1.000  Hf
  Hf41     1.0000 0.08996  0.68920  0.69045  Biso   1.000  Hf
  Hf42     1.0000 0.07936  0.56638  0.94667  Biso   1.000  Hf
  Hf43     1.0000 0.95355  0.93076  0.69570  Biso   1.000  Hf
  Hf44     1.0000 0.97407  0.81790  0.95796  Biso   1.000  Hf
  Hf45     1.0000 0.55194  0.61983  0.74853  Biso   1.000  Hf
  Hf46     1.0000 0.54653  0.63123  0.00060  Biso   1.000  Hf
  Hf47     1.0000 0.49798  0.87235  0.99096  Biso   1.000  Hf
  Hf48     1.0000 0.49191  0.86543  0.74638  Biso   1.000  Hf
  Cd1      1.0000 0.07989  0.24224  0.09302  Biso   1.000  Cd
