data_image0
_cell_length_a       10.0566
_cell_length_b       10.2307
_cell_length_c       5.02711
_cell_angle_alpha    89.9999
_cell_angle_beta     89.9997
_cell_angle_gamma    90

_symmetry_space_group_name_H-M    "P 1"
_symmetry_int_tables_number       1

loop_
  _symmetry_equiv_pos_as_xyz
  'x, y, z'

loop_
  _atom_site_label
  _atom_site_occupancy
  _atom_site_fract_x
  _atom_site_fract_y
  _atom_site_fract_z
  _atom_site_thermal_displace_type
  _atom_site_B_iso_or_equiv
  _atom_site_type_symbol
  Ce1      1.0000 0.12491  0.00005  0.24982  Biso   1.000  Ce
  Hf1      1.0000 0.12491  0.25444  0.74982  Biso   1.000  Hf
  Hf2      1.0000 0.37615  0.25168  0.24765  Biso   1.000  Hf
  Hf3      1.0000 0.37801  0.00005  0.74982  Biso   1.000  Hf
  Hf4      1.0000 0.00028  0.15031  0.00368  Biso   1.000  Hf
  Hf5      1.0000 0.99065  0.11211  0.51629  Biso   1.000  Hf
  Hf6      1.0000 0.00407  0.35566  0.48691  Biso   1.000  Hf
  Hf7      1.0000 0.99886  0.39722  0.99069  Biso   1.000  Hf
  Hf8      1.0000 0.24954  0.15031  0.49595  Biso   1.000  Hf
  Hf9      1.0000 0.25917  0.11210  0.98335  Biso   1.000  Hf
  Hf10     1.0000 0.24575  0.35566  0.01273  Biso   1.000  Hf
  Hf11     1.0000 0.25096  0.39722  0.50894  Biso   1.000  Hf
  Hf12     1.0000 0.12491  0.50005  0.24982  Biso   1.000  Hf
  Hf13     1.0000 0.12491  0.74567  0.74982  Biso   1.000  Hf
  Hf14     1.0000 0.37614  0.74843  0.25199  Biso   1.000  Hf
  Hf15     1.0000 0.37517  0.50006  0.74982  Biso   1.000  Hf
  Hf16     1.0000 0.00407  0.64444  0.01273  Biso   1.000  Hf
  Hf17     1.0000 0.99886  0.60288  0.50894  Biso   1.000  Hf
  Hf18     1.0000 0.00028  0.84980  0.49595  Biso   1.000  Hf
  Hf19     1.0000 0.99065  0.88800  0.98335  Biso   1.000  Hf
  Hf20     1.0000 0.24575  0.64444  0.48690  Biso   1.000  Hf
  Hf21     1.0000 0.25096  0.60289  0.99069  Biso   1.000  Hf
  Hf22     1.0000 0.24953  0.84980  0.00368  Biso   1.000  Hf
  Hf23     1.0000 0.25917  0.88800  0.51629  Biso   1.000  Hf
  Hf24     1.0000 0.62491  0.00006  0.24982  Biso   1.000  Hf
  Hf25     1.0000 0.62491  0.24954  0.74982  Biso   1.000  Hf
  Hf26     1.0000 0.87367  0.25168  0.25199  Biso   1.000  Hf
  Hf27     1.0000 0.87181  0.00006  0.74982  Biso   1.000  Hf
  Hf28     1.0000 0.50674  0.14856  0.01067  Biso   1.000  Hf
  Hf29     1.0000 0.49822  0.10197  0.50419  Biso   1.000  Hf
  Hf30     1.0000 0.50324  0.35270  0.49722  Biso   1.000  Hf
  Hf31     1.0000 0.49707  0.39792  0.00000  Biso   1.000  Hf
  Hf32     1.0000 0.74308  0.14856  0.48897  Biso   1.000  Hf
  Hf33     1.0000 0.75159  0.10197  0.99545  Biso   1.000  Hf
  Hf34     1.0000 0.74658  0.35270  0.00242  Biso   1.000  Hf
  Hf35     1.0000 0.75274  0.39792  0.49963  Biso   1.000  Hf
  Hf36     1.0000 0.62491  0.50005  0.24982  Biso   1.000  Hf
  Hf37     1.0000 0.62491  0.75057  0.74982  Biso   1.000  Hf
  Hf38     1.0000 0.87367  0.74842  0.24764  Biso   1.000  Hf
  Hf39     1.0000 0.87465  0.50005  0.74982  Biso   1.000  Hf
  Hf40     1.0000 0.50324  0.64741  0.00243  Biso   1.000  Hf
  Hf41     1.0000 0.49707  0.60219  0.49962  Biso   1.000  Hf
  Hf42     1.0000 0.50674  0.85155  0.48897  Biso   1.000  Hf
  Hf43     1.0000 0.49823  0.89814  0.99545  Biso   1.000  Hf
  Hf44     1.0000 0.74658  0.64741  0.49720  Biso   1.000  Hf
  Hf45     1.0000 0.75274  0.60219  0.00001  Biso   1.000  Hf
  Hf46     1.0000 0.74308  0.85155  0.01067  Biso   1.000  Hf
  Hf47     1.0000 0.75159  0.89814  0.50419  Biso   1.000  Hf
