data_image0
_cell_length_a       9.9854
_cell_length_b       10.3815
_cell_length_c       10.0257
_cell_angle_alpha    90.1154
_cell_angle_beta     90.1706
_cell_angle_gamma    90.0004

_symmetry_space_group_name_H-M    "P 1"
_symmetry_int_tables_number       1

loop_
  _symmetry_equiv_pos_as_xyz
  'x, y, z'

loop_
  _atom_site_label
  _atom_site_occupancy
  _atom_site_fract_x
  _atom_site_fract_y
  _atom_site_fract_z
  _atom_site_thermal_displace_type
  _atom_site_B_iso_or_equiv
  _atom_site_type_symbol
  Ce1      1.0000 0.12626  0.01018  0.12051  Biso   1.000  Ce
  Hf1      1.0000 0.13450  0.23390  0.37741  Biso   1.000  Hf
  Hf2      1.0000 0.36537  0.26631  0.12625  Biso   1.000  Hf
  Hf3      1.0000 0.36512  0.48313  0.37551  Biso   1.000  Hf
  Hf4      1.0000 0.03107  0.18927  0.19949  Biso   1.000  Hf
  Hf5      1.0000 0.03577  0.06503  0.44252  Biso   1.000  Hf
  Hf6      1.0000 0.46375  0.43343  0.19503  Biso   1.000  Hf
  Hf7      1.0000 0.46317  0.31509  0.44399  Biso   1.000  Hf
  Hf8      1.0000 0.27585  0.12335  0.25296  Biso   1.000  Hf
  Hf9      1.0000 0.27008  0.13143  0.50038  Biso   1.000  Hf
  Hf10     1.0000 0.22969  0.38263  0.49959  Biso   1.000  Hf
  Hf11     1.0000 0.22760  0.36799  0.24919  Biso   1.000  Hf
  Hf12     1.0000 0.13357  0.01630  0.62562  Biso   1.000  Hf
  Hf13     1.0000 0.13457  0.23709  0.87152  Biso   1.000  Hf
  Hf14     1.0000 0.36654  0.26596  0.62497  Biso   1.000  Hf
  Hf15     1.0000 0.36703  0.48319  0.87598  Biso   1.000  Hf
  Hf16     1.0000 0.03896  0.18755  0.68725  Biso   1.000  Hf
  Hf17     1.0000 0.03341  0.07253  0.92704  Biso   1.000  Hf
  Hf18     1.0000 0.46483  0.43358  0.69477  Biso   1.000  Hf
  Hf19     1.0000 0.46522  0.31652  0.94437  Biso   1.000  Hf
  Hf20     1.0000 0.27117  0.11773  0.74799  Biso   1.000  Hf
  Hf21     1.0000 0.27328  0.13529  0.99425  Biso   1.000  Hf
  Hf22     1.0000 0.23005  0.38331  0.99900  Biso   1.000  Hf
  Hf23     1.0000 0.23127  0.36886  0.74804  Biso   1.000  Hf
  Hf24     1.0000 0.13306  0.51635  0.12561  Biso   1.000  Hf
  Hf25     1.0000 0.13351  0.73274  0.37686  Biso   1.000  Hf
  Hf26     1.0000 0.36930  0.76378  0.12514  Biso   1.000  Hf
  Hf27     1.0000 0.36611  0.98346  0.37528  Biso   1.000  Hf
  Hf28     1.0000 0.03585  0.68565  0.19527  Biso   1.000  Hf
  Hf29     1.0000 0.03567  0.56584  0.44574  Biso   1.000  Hf
  Hf30     1.0000 0.46307  0.93498  0.19267  Biso   1.000  Hf
  Hf31     1.0000 0.46429  0.81614  0.44581  Biso   1.000  Hf
  Hf32     1.0000 0.26953  0.61497  0.24932  Biso   1.000  Hf
  Hf33     1.0000 0.27018  0.63232  0.49977  Biso   1.000  Hf
  Hf34     1.0000 0.22926  0.88278  0.49951  Biso   1.000  Hf
  Hf35     1.0000 0.23752  0.85960  0.25348  Biso   1.000  Hf
  Hf36     1.0000 0.13414  0.51668  0.62588  Biso   1.000  Hf
  Hf37     1.0000 0.13536  0.73297  0.87563  Biso   1.000  Hf
  Hf38     1.0000 0.36599  0.76638  0.62533  Biso   1.000  Hf
  Hf39     1.0000 0.36963  0.98401  0.87308  Biso   1.000  Hf
  Hf40     1.0000 0.03608  0.68423  0.69574  Biso   1.000  Hf
  Hf41     1.0000 0.03541  0.56845  0.94443  Biso   1.000  Hf
  Hf42     1.0000 0.46473  0.93383  0.69369  Biso   1.000  Hf
  Hf43     1.0000 0.46887  0.81639  0.94453  Biso   1.000  Hf
  Hf44     1.0000 0.27107  0.61758  0.74960  Biso   1.000  Hf
  Hf45     1.0000 0.27099  0.63099  0.99956  Biso   1.000  Hf
  Hf46     1.0000 0.23961  0.87621  0.99344  Biso   1.000  Hf
  Hf47     1.0000 0.22973  0.86772  0.74806  Biso   1.000  Hf
  Hf48     1.0000 0.63391  0.01583  0.12634  Biso   1.000  Hf
  Hf49     1.0000 0.63306  0.23352  0.37519  Biso   1.000  Hf
  Hf50     1.0000 0.86360  0.26828  0.12630  Biso   1.000  Hf
  Hf51     1.0000 0.86598  0.48350  0.37634  Biso   1.000  Hf
  Hf52     1.0000 0.53743  0.18461  0.19237  Biso   1.000  Hf
  Hf53     1.0000 0.53638  0.06570  0.44449  Biso   1.000  Hf
  Hf54     1.0000 0.96173  0.43688  0.19397  Biso   1.000  Hf
  Hf55     1.0000 0.96348  0.31716  0.44479  Biso   1.000  Hf
  Hf56     1.0000 0.76901  0.11725  0.25124  Biso   1.000  Hf
  Hf57     1.0000 0.76903  0.13328  0.50079  Biso   1.000  Hf
  Hf58     1.0000 0.72923  0.38252  0.49958  Biso   1.000  Hf
  Hf59     1.0000 0.72853  0.36802  0.25011  Biso   1.000  Hf
  Hf60     1.0000 0.63358  0.01729  0.62595  Biso   1.000  Hf
  Hf61     1.0000 0.63447  0.23399  0.87606  Biso   1.000  Hf
  Hf62     1.0000 0.86643  0.26757  0.62516  Biso   1.000  Hf
  Hf63     1.0000 0.86646  0.48333  0.87631  Biso   1.000  Hf
  Hf64     1.0000 0.53604  0.18402  0.69494  Biso   1.000  Hf
  Hf65     1.0000 0.53889  0.06552  0.94292  Biso   1.000  Hf
  Hf66     1.0000 0.96504  0.43449  0.69609  Biso   1.000  Hf
  Hf67     1.0000 0.96508  0.31788  0.94601  Biso   1.000  Hf
  Hf68     1.0000 0.77088  0.11826  0.74932  Biso   1.000  Hf
  Hf69     1.0000 0.77184  0.13194  0.00009  Biso   1.000  Hf
  Hf70     1.0000 0.72935  0.38265  0.99960  Biso   1.000  Hf
  Hf71     1.0000 0.73026  0.36762  0.74989  Biso   1.000  Hf
  Hf72     1.0000 0.63316  0.51545  0.12626  Biso   1.000  Hf
  Hf73     1.0000 0.63273  0.73265  0.37802  Biso   1.000  Hf
  Hf74     1.0000 0.86209  0.76439  0.12877  Biso   1.000  Hf
  Hf75     1.0000 0.86233  0.98346  0.38075  Biso   1.000  Hf
  Hf76     1.0000 0.53650  0.68224  0.19613  Biso   1.000  Hf
  Hf77     1.0000 0.53501  0.56506  0.44529  Biso   1.000  Hf
  Hf78     1.0000 0.95062  0.93100  0.20317  Biso   1.000  Hf
  Hf79     1.0000 0.96331  0.81528  0.44636  Biso   1.000  Hf
  Hf80     1.0000 0.76947  0.61717  0.25047  Biso   1.000  Hf
  Hf81     1.0000 0.77009  0.63177  0.50003  Biso   1.000  Hf
  Hf82     1.0000 0.72831  0.88138  0.50241  Biso   1.000  Hf
  Hf83     1.0000 0.72337  0.86658  0.25207  Biso   1.000  Hf
  Hf84     1.0000 0.63377  0.51588  0.62602  Biso   1.000  Hf
  Hf85     1.0000 0.63479  0.73249  0.87554  Biso   1.000  Hf
  Hf86     1.0000 0.86635  0.76548  0.62580  Biso   1.000  Hf
  Hf87     1.0000 0.86290  0.98267  0.87399  Biso   1.000  Hf
  Hf88     1.0000 0.53629  0.68376  0.69446  Biso   1.000  Hf
  Hf89     1.0000 0.53624  0.56616  0.94561  Biso   1.000  Hf
  Hf90     1.0000 0.96283  0.93381  0.69387  Biso   1.000  Hf
  Hf91     1.0000 0.97226  0.82395  0.95467  Biso   1.000  Hf
  Hf92     1.0000 0.77106  0.61700  0.74954  Biso   1.000  Hf
  Hf93     1.0000 0.77098  0.63178  0.99959  Biso   1.000  Hf
  Hf94     1.0000 0.73119  0.88075  0.00102  Biso   1.000  Hf
  Hf95     1.0000 0.73013  0.86713  0.75074  Biso   1.000  Hf
