data_image0
_cell_length_a       10.1389
_cell_length_b       5.169
_cell_length_c       10.1389
_cell_angle_alpha    90
_cell_angle_beta     90
_cell_angle_gamma    90.0001

_symmetry_space_group_name_H-M    "P 1"
_symmetry_int_tables_number       1

loop_
  _symmetry_equiv_pos_as_xyz
  'x, y, z'

loop_
  _atom_site_label
  _atom_site_occupancy
  _atom_site_fract_x
  _atom_site_fract_y
  _atom_site_fract_z
  _atom_site_thermal_displace_type
  _atom_site_B_iso_or_equiv
  _atom_site_type_symbol
  Hf1      1.0000 0.12491  0.00010  0.12491  Biso   1.000  Hf
  Hf2      1.0000 0.12491  0.50011  0.39815  Biso   1.000  Hf
  Hf3      1.0000 0.39815  0.50011  0.12491  Biso   1.000  Hf
  Hf4      1.0000 0.37369  0.00291  0.37369  Biso   1.000  Hf
  Hf5      1.0000 0.98272  0.29382  0.98273  Biso   1.000  Hf
  Hf6      1.0000 0.00114  0.20093  0.24869  Biso   1.000  Hf
  Hf7      1.0000 0.98273  0.70638  0.26709  Biso   1.000  Hf
  Hf8      1.0000 0.00113  0.79927  0.00113  Biso   1.000  Hf
  Hf9      1.0000 0.26709  0.29383  0.26709  Biso   1.000  Hf
  Hf10     1.0000 0.24868  0.20093  0.00113  Biso   1.000  Hf
  Hf11     1.0000 0.26709  0.70638  0.98273  Biso   1.000  Hf
  Hf12     1.0000 0.24868  0.79927  0.24869  Biso   1.000  Hf
  Hf13     1.0000 0.12491  0.00011  0.62491  Biso   1.000  Hf
  Hf14     1.0000 0.12491  0.50011  0.85167  Biso   1.000  Hf
  Hf15     1.0000 0.37934  0.50011  0.62491  Biso   1.000  Hf
  Hf16     1.0000 0.37368  0.99731  0.87613  Biso   1.000  Hf
  Hf17     1.0000 0.98731  0.28426  0.49630  Biso   1.000  Hf
  Hf18     1.0000 0.00640  0.21285  0.74275  Biso   1.000  Hf
  Hf19     1.0000 0.98731  0.71595  0.75352  Biso   1.000  Hf
  Hf20     1.0000 0.00640  0.78737  0.50707  Biso   1.000  Hf
  Hf21     1.0000 0.26251  0.28427  0.75352  Biso   1.000  Hf
  Hf22     1.0000 0.24342  0.21285  0.50707  Biso   1.000  Hf
  Hf23     1.0000 0.26251  0.71595  0.49630  Biso   1.000  Hf
  Hf24     1.0000 0.24341  0.78737  0.74275  Biso   1.000  Hf
  Hf25     1.0000 0.62491  0.00011  0.12491  Biso   1.000  Hf
  Hf26     1.0000 0.62491  0.50011  0.37934  Biso   1.000  Hf
  Hf27     1.0000 0.85167  0.50011  0.12491  Biso   1.000  Hf
  Hf28     1.0000 0.87613  0.99730  0.37369  Biso   1.000  Hf
  Hf29     1.0000 0.49629  0.28427  0.98731  Biso   1.000  Hf
  Hf30     1.0000 0.50708  0.21285  0.24342  Biso   1.000  Hf
  Hf31     1.0000 0.49629  0.71595  0.26251  Biso   1.000  Hf
  Hf32     1.0000 0.50707  0.78737  0.00640  Biso   1.000  Hf
  Hf33     1.0000 0.75353  0.28426  0.26250  Biso   1.000  Hf
  Hf34     1.0000 0.74274  0.21285  0.00640  Biso   1.000  Hf
  Hf35     1.0000 0.75352  0.71595  0.98731  Biso   1.000  Hf
  Hf36     1.0000 0.74274  0.78737  0.24341  Biso   1.000  Hf
  Hf37     1.0000 0.62491  0.00011  0.62491  Biso   1.000  Hf
  Hf38     1.0000 0.62491  0.50011  0.87047  Biso   1.000  Hf
  Hf39     1.0000 0.87047  0.50011  0.62491  Biso   1.000  Hf
  Hf40     1.0000 0.87613  0.00291  0.87613  Biso   1.000  Hf
  Hf41     1.0000 0.49076  0.29558  0.49076  Biso   1.000  Hf
  Hf42     1.0000 0.50666  0.20889  0.74316  Biso   1.000  Hf
  Hf43     1.0000 0.49076  0.70464  0.75906  Biso   1.000  Hf
  Hf44     1.0000 0.50666  0.79132  0.50666  Biso   1.000  Hf
  Hf45     1.0000 0.75905  0.29557  0.75905  Biso   1.000  Hf
  Hf46     1.0000 0.74316  0.20889  0.50666  Biso   1.000  Hf
  Hf47     1.0000 0.75906  0.70463  0.49076  Biso   1.000  Hf
  Hf48     1.0000 0.74316  0.79132  0.74316  Biso   1.000  Hf
  Ce1      1.0000 0.12491  0.50010  0.12491  Biso   1.000  Ce
