data_image0
_cell_length_a       10.2186
_cell_length_b       10.4007
_cell_length_c       5.13392
_cell_angle_alpha    84.3039
_cell_angle_beta     89.8293
_cell_angle_gamma    90.8342

_symmetry_space_group_name_H-M    "P 1"
_symmetry_int_tables_number       1

loop_
  _symmetry_equiv_pos_as_xyz
  'x, y, z'

loop_
  _atom_site_label
  _atom_site_occupancy
  _atom_site_fract_x
  _atom_site_fract_y
  _atom_site_fract_z
  _atom_site_thermal_displace_type
  _atom_site_B_iso_or_equiv
  _atom_site_type_symbol
  Hf1      1.0000 0.11272  0.97227  0.21813  Biso   1.000  Hf
  Hf2      1.0000 0.10617  0.22583  0.61179  Biso   1.000  Hf
  Hf3      1.0000 0.38437  0.26876  0.19229  Biso   1.000  Hf
  Hf4      1.0000 0.40139  0.48758  0.68929  Biso   1.000  Hf
  Hf5      1.0000 0.97905  0.12053  0.37265  Biso   1.000  Hf
  Hf6      1.0000 0.04394  0.06094  0.86901  Biso   1.000  Hf
  Hf7      1.0000 0.49971  0.39173  0.40690  Biso   1.000  Hf
  Hf8      1.0000 0.50531  0.34010  0.90370  Biso   1.000  Hf
  Hf9      1.0000 0.23546  0.11360  0.38532  Biso   1.000  Hf
  Hf10     1.0000 0.27916  0.18424  0.85244  Biso   1.000  Hf
  Hf11     1.0000 0.27923  0.43555  0.99104  Biso   1.000  Hf
  Hf12     1.0000 0.24957  0.36489  0.45192  Biso   1.000  Hf
  Hf13     1.0000 0.15249  0.52834  0.25636  Biso   1.000  Hf
  Hf14     1.0000 0.11094  0.72639  0.73665  Biso   1.000  Hf
  Hf15     1.0000 0.36745  0.77468  0.27788  Biso   1.000  Hf
  Hf16     1.0000 0.35178  0.01982  0.69398  Biso   1.000  Hf
  Hf17     1.0000 0.00369  0.63259  0.45005  Biso   1.000  Hf
  Hf18     1.0000 0.03208  0.54922  0.92598  Biso   1.000  Hf
  Hf19     1.0000 0.48699  0.89290  0.52032  Biso   1.000  Hf
  Hf20     1.0000 0.53088  0.83511  0.04930  Biso   1.000  Hf
  Hf21     1.0000 0.26059  0.61947  0.53631  Biso   1.000  Hf
  Hf22     1.0000 0.24105  0.68528  0.04148  Biso   1.000  Hf
  Hf23     1.0000 0.28093  0.92773  0.03502  Biso   1.000  Hf
  Hf24     1.0000 0.23726  0.86376  0.52617  Biso   1.000  Hf
  Hf25     1.0000 0.61851  0.99764  0.22066  Biso   1.000  Hf
  Hf26     1.0000 0.60574  0.22619  0.68828  Biso   1.000  Hf
  Hf27     1.0000 0.83318  0.26163  0.23036  Biso   1.000  Hf
  Hf28     1.0000 0.89248  0.47424  0.68754  Biso   1.000  Hf
  Hf29     1.0000 0.49215  0.13631  0.42585  Biso   1.000  Hf
  Hf30     1.0000 0.50333  0.07664  0.92070  Biso   1.000  Hf
  Hf31     1.0000 0.99550  0.38393  0.39391  Biso   1.000  Hf
  Hf32     1.0000 0.93717  0.28700  0.84679  Biso   1.000  Hf
  Hf33     1.0000 0.74017  0.10643  0.50460  Biso   1.000  Hf
  Hf34     1.0000 0.71116  0.16872  0.01614  Biso   1.000  Hf
  Hf35     1.0000 0.77299  0.43306  0.01869  Biso   1.000  Hf
  Hf36     1.0000 0.73844  0.36327  0.50330  Biso   1.000  Hf
  Hf37     1.0000 0.64494  0.52202  0.23881  Biso   1.000  Hf
  Hf38     1.0000 0.60428  0.74443  0.74433  Biso   1.000  Hf
  Hf39     1.0000 0.85783  0.76144  0.27300  Biso   1.000  Hf
  Hf40     1.0000 0.87851  0.99171  0.70101  Biso   1.000  Hf
  Hf41     1.0000 0.50702  0.64333  0.45530  Biso   1.000  Hf
  Hf42     1.0000 0.51481  0.58389  0.94179  Biso   1.000  Hf
  Hf43     1.0000 0.99017  0.87188  0.50343  Biso   1.000  Hf
  Hf44     1.0000 0.01236  0.81862  0.01463  Biso   1.000  Hf
  Hf45     1.0000 0.75684  0.60881  0.51368  Biso   1.000  Hf
  Hf46     1.0000 0.74251  0.68157  0.01812  Biso   1.000  Hf
  Hf47     1.0000 0.78589  0.93364  0.04237  Biso   1.000  Hf
  Hf48     1.0000 0.74118  0.85887  0.52101  Biso   1.000  Hf
  Ce1      1.0000 0.11691  0.27217  0.09390  Biso   1.000  Ce
