data_image0
_cell_length_a       10.0849
_cell_length_b       10.2322
_cell_length_c       10.4409
_cell_angle_alpha    90.0311
_cell_angle_beta     80.673
_cell_angle_gamma    89.6393

_symmetry_space_group_name_H-M    "P 1"
_symmetry_int_tables_number       1

loop_
  _symmetry_equiv_pos_as_xyz
  'x, y, z'

loop_
  _atom_site_label
  _atom_site_occupancy
  _atom_site_fract_x
  _atom_site_fract_y
  _atom_site_fract_z
  _atom_site_thermal_displace_type
  _atom_site_B_iso_or_equiv
  _atom_site_type_symbol
  Co1      1.0000 0.11998  0.01160  0.17136  Biso   1.000  Co
  Hf1      1.0000 0.13735  0.02062  0.64280  Biso   1.000  Hf
  Hf2      1.0000 0.14042  0.52269  0.14588  Biso   1.000  Hf
  Hf3      1.0000 0.14030  0.52118  0.64680  Biso   1.000  Hf
  Hf4      1.0000 0.63791  0.02187  0.14534  Biso   1.000  Hf
  Hf5      1.0000 0.63800  0.02158  0.64692  Biso   1.000  Hf
  Hf6      1.0000 0.63663  0.52057  0.14477  Biso   1.000  Hf
  Hf7      1.0000 0.63874  0.52126  0.64712  Biso   1.000  Hf
  Hf8      1.0000 0.13930  0.22874  0.39027  Biso   1.000  Hf
  Hf9      1.0000 0.14460  0.22311  0.89576  Biso   1.000  Hf
  Hf10     1.0000 0.13683  0.72855  0.39653  Biso   1.000  Hf
  Hf11     1.0000 0.13983  0.73343  0.89666  Biso   1.000  Hf
  Hf12     1.0000 0.63850  0.22862  0.39564  Biso   1.000  Hf
  Hf13     1.0000 0.64045  0.23035  0.89702  Biso   1.000  Hf
  Hf14     1.0000 0.63744  0.72798  0.39560  Biso   1.000  Hf
  Hf15     1.0000 0.63678  0.72919  0.89739  Biso   1.000  Hf
  Hf16     1.0000 0.35824  0.26760  0.10110  Biso   1.000  Hf
  Hf17     1.0000 0.36058  0.27198  0.60293  Biso   1.000  Hf
  Hf18     1.0000 0.35510  0.77862  0.10262  Biso   1.000  Hf
  Hf19     1.0000 0.36124  0.77248  0.60415  Biso   1.000  Hf
  Hf20     1.0000 0.86817  0.26601  0.10732  Biso   1.000  Hf
  Hf21     1.0000 0.86150  0.27134  0.60450  Biso   1.000  Hf
  Hf22     1.0000 0.86134  0.77040  0.10374  Biso   1.000  Hf
  Hf23     1.0000 0.85910  0.76964  0.60639  Biso   1.000  Hf
  Hf24     1.0000 0.36154  0.47920  0.35317  Biso   1.000  Hf
  Hf25     1.0000 0.36115  0.47985  0.85486  Biso   1.000  Hf
  Hf26     1.0000 0.35809  0.97975  0.35021  Biso   1.000  Hf
  Hf27     1.0000 0.36028  0.98359  0.85504  Biso   1.000  Hf
  Hf28     1.0000 0.86053  0.47856  0.35405  Biso   1.000  Hf
  Hf29     1.0000 0.86495  0.47658  0.85739  Biso   1.000  Hf
  Hf30     1.0000 0.85670  0.97646  0.35692  Biso   1.000  Hf
  Hf31     1.0000 0.86122  0.97942  0.85416  Biso   1.000  Hf
  O1       1.0000 0.04830  0.15048  0.08647  Biso   1.000  O
  O2       1.0000 0.03416  0.16453  0.57211  Biso   1.000  O
  O3       1.0000 0.03605  0.66985  0.08102  Biso   1.000  O
  O4       1.0000 0.03485  0.66718  0.58006  Biso   1.000  O
  O5       1.0000 0.53705  0.17006  0.08011  Biso   1.000  O
  O6       1.0000 0.53597  0.16972  0.57922  Biso   1.000  O
  O7       1.0000 0.53355  0.67037  0.07987  Biso   1.000  O
  O8       1.0000 0.53591  0.66941  0.57904  Biso   1.000  O
  O9       1.0000 0.03432  0.07796  0.32526  Biso   1.000  O
  O10      1.0000 0.03539  0.08214  0.82689  Biso   1.000  O
  O11      1.0000 0.03588  0.57976  0.33053  Biso   1.000  O
  O12      1.0000 0.03756  0.58230  0.83194  Biso   1.000  O
  O13      1.0000 0.53327  0.08221  0.32882  Biso   1.000  O
  O14      1.0000 0.53974  0.08104  0.82989  Biso   1.000  O
  O15      1.0000 0.53690  0.57910  0.33016  Biso   1.000  O
  O16      1.0000 0.53480  0.58381  0.82843  Biso   1.000  O
  O17      1.0000 0.46326  0.41891  0.16980  Biso   1.000  O
  O18      1.0000 0.46412  0.41918  0.67028  Biso   1.000  O
  O19      1.0000 0.46334  0.91880  0.17083  Biso   1.000  O
  O20      1.0000 0.46402  0.92025  0.66922  Biso   1.000  O
  O21      1.0000 0.96831  0.41586  0.17156  Biso   1.000  O
  O22      1.0000 0.96748  0.41487  0.67407  Biso   1.000  O
  O23      1.0000 0.96895  0.91785  0.17372  Biso   1.000  O
  O24      1.0000 0.96364  0.91690  0.67078  Biso   1.000  O
  O25      1.0000 0.46438  0.33185  0.41997  Biso   1.000  O
  O26      1.0000 0.47042  0.33843  0.92213  Biso   1.000  O
  O27      1.0000 0.46228  0.83088  0.41782  Biso   1.000  O
  O28      1.0000 0.46074  0.83247  0.92035  Biso   1.000  O
  O29      1.0000 0.96345  0.32970  0.41942  Biso   1.000  O
  O30      1.0000 0.96935  0.32813  0.92794  Biso   1.000  O
  O31      1.0000 0.96184  0.83012  0.42203  Biso   1.000  O
  O32      1.0000 0.96297  0.83149  0.92179  Biso   1.000  O
  O33      1.0000 0.26439  0.12012  0.22927  Biso   1.000  O
  O34      1.0000 0.27479  0.12723  0.73258  Biso   1.000  O
  O35      1.0000 0.27584  0.63406  0.24127  Biso   1.000  O
  O36      1.0000 0.27681  0.63026  0.74041  Biso   1.000  O
  O37      1.0000 0.77665  0.12597  0.24136  Biso   1.000  O
  O38      1.0000 0.77844  0.12995  0.74016  Biso   1.000  O
  O39      1.0000 0.77654  0.62816  0.24019  Biso   1.000  O
  O40      1.0000 0.77748  0.62776  0.74250  Biso   1.000  O
  O41      1.0000 0.27708  0.12287  0.48372  Biso   1.000  O
  O42      1.0000 0.29754  0.13841  0.97029  Biso   1.000  O
  O43      1.0000 0.27661  0.62088  0.49094  Biso   1.000  O
  O44      1.0000 0.27648  0.62538  0.99068  Biso   1.000  O
  O45      1.0000 0.77682  0.12010  0.49075  Biso   1.000  O
  O46      1.0000 0.77921  0.12069  0.99204  Biso   1.000  O
  O47      1.0000 0.77638  0.62016  0.49127  Biso   1.000  O
  O48      1.0000 0.77709  0.62121  0.99145  Biso   1.000  O
  O49      1.0000 0.22341  0.38262  0.00910  Biso   1.000  O
  O50      1.0000 0.22184  0.37889  0.50802  Biso   1.000  O
  O51      1.0000 0.21918  0.89532  0.01416  Biso   1.000  O
  O52      1.0000 0.22264  0.87933  0.50711  Biso   1.000  O
  O53      1.0000 0.72885  0.37752  0.01189  Biso   1.000  O
  O54      1.0000 0.72328  0.37858  0.51019  Biso   1.000  O
  O55      1.0000 0.72228  0.87969  0.01009  Biso   1.000  O
  O56      1.0000 0.72090  0.87794  0.51029  Biso   1.000  O
  O57      1.0000 0.22528  0.36969  0.25850  Biso   1.000  O
  O58      1.0000 0.22519  0.36933  0.76006  Biso   1.000  O
  O59      1.0000 0.21035  0.87637  0.25690  Biso   1.000  O
  O60      1.0000 0.22313  0.87171  0.75923  Biso   1.000  O
  O61      1.0000 0.72621  0.36828  0.25907  Biso   1.000  O
  O62      1.0000 0.72552  0.37208  0.76114  Biso   1.000  O
  O63      1.0000 0.72590  0.87038  0.25898  Biso   1.000  O
  O64      1.0000 0.72284  0.87063  0.76044  Biso   1.000  O
