data_image0
_cell_length_a       9.99796
_cell_length_b       5.10513
_cell_length_c       9.99808
_cell_angle_alpha    91.1703
_cell_angle_beta     93.1905
_cell_angle_gamma    88.8321

_symmetry_space_group_name_H-M    "P 1"
_symmetry_int_tables_number       1

loop_
  _symmetry_equiv_pos_as_xyz
  'x, y, z'

loop_
  _atom_site_label
  _atom_site_occupancy
  _atom_site_fract_x
  _atom_site_fract_y
  _atom_site_fract_z
  _atom_site_thermal_displace_type
  _atom_site_B_iso_or_equiv
  _atom_site_type_symbol
  Co1      1.0000 0.12752  0.08393  0.12260  Biso   1.000  Co
  Hf1      1.0000 0.11259  0.02342  0.63787  Biso   1.000  Hf
  Hf2      1.0000 0.61226  0.02341  0.13753  Biso   1.000  Hf
  Hf3      1.0000 0.62274  0.00772  0.62739  Biso   1.000  Hf
  Hf4      1.0000 0.10721  0.47033  0.38740  Biso   1.000  Hf
  Hf5      1.0000 0.12286  0.50515  0.88984  Biso   1.000  Hf
  Hf6      1.0000 0.61157  0.49870  0.38274  Biso   1.000  Hf
  Hf7      1.0000 0.62489  0.49946  0.88106  Biso   1.000  Hf
  Hf8      1.0000 0.36028  0.50515  0.12725  Biso   1.000  Hf
  Hf9      1.0000 0.36904  0.49945  0.62522  Biso   1.000  Hf
  Hf10     1.0000 0.86272  0.47033  0.14291  Biso   1.000  Hf
  Hf11     1.0000 0.86737  0.49869  0.63854  Biso   1.000  Hf
  Hf12     1.0000 0.36108  0.99325  0.36984  Biso   1.000  Hf
  Hf13     1.0000 0.38006  0.99902  0.87007  Biso   1.000  Hf
  Hf14     1.0000 0.87141  0.97120  0.37872  Biso   1.000  Hf
  Hf15     1.0000 0.88029  0.99322  0.88906  Biso   1.000  Hf
  Hf16     1.0000 0.01050  0.31827  0.02240  Biso   1.000  Hf
  Hf17     1.0000 0.98605  0.27734  0.50844  Biso   1.000  Hf
  Hf18     1.0000 0.49872  0.31468  0.00432  Biso   1.000  Hf
  Hf19     1.0000 0.49075  0.29419  0.49883  Biso   1.000  Hf
  Hf20     1.0000 0.99801  0.16307  0.25211  Biso   1.000  Hf
  Hf21     1.0000 0.99829  0.22352  0.76728  Biso   1.000  Hf
  Hf22     1.0000 0.48284  0.22353  0.25182  Biso   1.000  Hf
  Hf23     1.0000 0.49982  0.21173  0.75028  Biso   1.000  Hf
  Hf24     1.0000 0.97934  0.67352  0.27078  Biso   1.000  Hf
  Hf25     1.0000 0.00609  0.72161  0.75965  Biso   1.000  Hf
  Hf26     1.0000 0.49047  0.72162  0.24403  Biso   1.000  Hf
  Hf27     1.0000 0.50829  0.70340  0.74183  Biso   1.000  Hf
  Hf28     1.0000 0.04419  0.84233  0.00835  Biso   1.000  Hf
  Hf29     1.0000 0.01035  0.77630  0.51060  Biso   1.000  Hf
  Hf30     1.0000 0.53470  0.81908  0.98279  Biso   1.000  Hf
  Hf31     1.0000 0.50624  0.80075  0.49117  Biso   1.000  Hf
  Hf32     1.0000 0.22771  0.31828  0.23962  Biso   1.000  Hf
  Hf33     1.0000 0.24579  0.31468  0.75140  Biso   1.000  Hf
  Hf34     1.0000 0.74168  0.27734  0.26407  Biso   1.000  Hf
  Hf35     1.0000 0.75128  0.29419  0.75936  Biso   1.000  Hf
  Hf36     1.0000 0.24798  0.18921  0.00214  Biso   1.000  Hf
  Hf37     1.0000 0.23640  0.18159  0.49920  Biso   1.000  Hf
  Hf38     1.0000 0.75093  0.18157  0.01372  Biso   1.000  Hf
  Hf39     1.0000 0.74275  0.20056  0.50737  Biso   1.000  Hf
  Hf40     1.0000 0.29204  0.67838  0.95808  Biso   1.000  Hf
  Hf41     1.0000 0.26951  0.66865  0.45713  Biso   1.000  Hf
  Hf42     1.0000 0.79299  0.66863  0.98061  Biso   1.000  Hf
  Hf43     1.0000 0.75778  0.69727  0.49234  Biso   1.000  Hf
  Hf44     1.0000 0.24177  0.84235  0.20593  Biso   1.000  Hf
  Hf45     1.0000 0.26733  0.81908  0.71542  Biso   1.000  Hf
  Hf46     1.0000 0.73952  0.77631  0.23977  Biso   1.000  Hf
  Hf47     1.0000 0.75895  0.80073  0.74389  Biso   1.000  Hf
