data_image0
_cell_length_a       9.97554
_cell_length_b       10.3955
_cell_length_c       10.0195
_cell_angle_alpha    89.8257
_cell_angle_beta     90.1154
_cell_angle_gamma    90.0217

_symmetry_space_group_name_H-M    "P 1"
_symmetry_int_tables_number       1

loop_
  _symmetry_equiv_pos_as_xyz
  'x, y, z'

loop_
  _atom_site_label
  _atom_site_occupancy
  _atom_site_fract_x
  _atom_site_fract_y
  _atom_site_fract_z
  _atom_site_thermal_displace_type
  _atom_site_B_iso_or_equiv
  _atom_site_type_symbol
  Hf1      1.0000 0.13471  0.02126  0.12240  Biso   1.000  Hf
  Hf2      1.0000 0.13486  0.23139  0.38175  Biso   1.000  Hf
  Hf3      1.0000 0.36463  0.26437  0.12291  Biso   1.000  Hf
  Hf4      1.0000 0.36699  0.48380  0.37529  Biso   1.000  Hf
  Hf5      1.0000 0.01884  0.17366  0.21220  Biso   1.000  Hf
  Hf6      1.0000 0.03594  0.06499  0.44959  Biso   1.000  Hf
  Hf7      1.0000 0.46172  0.43365  0.19389  Biso   1.000  Hf
  Hf8      1.0000 0.46351  0.31610  0.44478  Biso   1.000  Hf
  Hf9      1.0000 0.26828  0.11842  0.25106  Biso   1.000  Hf
  Hf10     1.0000 0.27181  0.13162  0.50070  Biso   1.000  Hf
  Hf11     1.0000 0.23081  0.38262  0.50023  Biso   1.000  Hf
  Hf12     1.0000 0.22624  0.36796  0.24992  Biso   1.000  Hf
  Hf13     1.0000 0.13447  0.01466  0.62709  Biso   1.000  Hf
  Hf14     1.0000 0.14069  0.22669  0.87340  Biso   1.000  Hf
  Hf15     1.0000 0.36755  0.26647  0.62609  Biso   1.000  Hf
  Hf16     1.0000 0.36762  0.48361  0.87471  Biso   1.000  Hf
  Hf17     1.0000 0.03651  0.18168  0.69449  Biso   1.000  Hf
  Hf18     1.0000 0.03870  0.06226  0.94132  Biso   1.000  Hf
  Hf19     1.0000 0.46587  0.43370  0.69482  Biso   1.000  Hf
  Hf20     1.0000 0.46466  0.31481  0.94221  Biso   1.000  Hf
  Hf21     1.0000 0.27315  0.11498  0.74742  Biso   1.000  Hf
  Hf22     1.0000 0.28568  0.12301  0.99360  Biso   1.000  Hf
  Hf23     1.0000 0.23118  0.38480  0.00002  Biso   1.000  Hf
  Hf24     1.0000 0.23190  0.36639  0.74964  Biso   1.000  Hf
  Hf25     1.0000 0.13424  0.53111  0.12474  Biso   1.000  Hf
  Hf26     1.0000 0.13502  0.73564  0.37807  Biso   1.000  Hf
  Hf27     1.0000 0.36563  0.76855  0.12684  Biso   1.000  Hf
  Hf28     1.0000 0.36534  0.98353  0.37582  Biso   1.000  Hf
  Hf29     1.0000 0.03401  0.68741  0.19915  Biso   1.000  Hf
  Hf30     1.0000 0.03627  0.56701  0.44543  Biso   1.000  Hf
  Hf31     1.0000 0.46307  0.93448  0.19467  Biso   1.000  Hf
  Hf32     1.0000 0.46399  0.81509  0.44277  Biso   1.000  Hf
  Hf33     1.0000 0.27309  0.62210  0.25123  Biso   1.000  Hf
  Hf34     1.0000 0.27103  0.63187  0.50002  Biso   1.000  Hf
  Hf35     1.0000 0.23064  0.88228  0.50015  Biso   1.000  Hf
  Hf36     1.0000 0.22882  0.86967  0.24992  Biso   1.000  Hf
  Hf37     1.0000 0.13442  0.51552  0.62624  Biso   1.000  Hf
  Hf38     1.0000 0.13422  0.73563  0.87393  Biso   1.000  Hf
  Hf39     1.0000 0.36843  0.76477  0.62461  Biso   1.000  Hf
  Hf40     1.0000 0.36966  0.97926  0.87430  Biso   1.000  Hf
  Hf41     1.0000 0.03743  0.68370  0.69294  Biso   1.000  Hf
  Hf42     1.0000 0.03611  0.56891  0.94476  Biso   1.000  Hf
  Hf43     1.0000 0.46675  0.93194  0.69180  Biso   1.000  Hf
  Hf44     1.0000 0.46674  0.81477  0.94616  Biso   1.000  Hf
  Hf45     1.0000 0.27097  0.61632  0.74945  Biso   1.000  Hf
  Hf46     1.0000 0.27188  0.63537  0.99838  Biso   1.000  Hf
  Hf47     1.0000 0.22939  0.88117  0.99950  Biso   1.000  Hf
  Hf48     1.0000 0.23288  0.86565  0.74864  Biso   1.000  Hf
  Hf49     1.0000 0.63198  0.01464  0.12435  Biso   1.000  Hf
  Hf50     1.0000 0.63166  0.23190  0.37693  Biso   1.000  Hf
  Hf51     1.0000 0.85152  0.26472  0.12774  Biso   1.000  Hf
  Hf52     1.0000 0.86715  0.48351  0.37649  Biso   1.000  Hf
  Hf53     1.0000 0.53453  0.18227  0.19407  Biso   1.000  Hf
  Hf54     1.0000 0.53550  0.06518  0.44512  Biso   1.000  Hf
  Hf55     1.0000 0.96148  0.43539  0.19444  Biso   1.000  Hf
  Hf56     1.0000 0.96619  0.31778  0.44786  Biso   1.000  Hf
  Hf57     1.0000 0.76399  0.11531  0.25038  Biso   1.000  Hf
  Hf58     1.0000 0.77137  0.13291  0.49884  Biso   1.000  Hf
  Hf59     1.0000 0.73044  0.38204  0.50055  Biso   1.000  Hf
  Hf60     1.0000 0.72506  0.36873  0.25222  Biso   1.000  Hf
  Hf61     1.0000 0.63600  0.01556  0.62495  Biso   1.000  Hf
  Hf62     1.0000 0.63339  0.23192  0.87383  Biso   1.000  Hf
  Hf63     1.0000 0.86716  0.26592  0.62645  Biso   1.000  Hf
  Hf64     1.0000 0.86706  0.48219  0.87771  Biso   1.000  Hf
  Hf65     1.0000 0.53819  0.18375  0.69234  Biso   1.000  Hf
  Hf66     1.0000 0.54138  0.06267  0.93988  Biso   1.000  Hf
  Hf67     1.0000 0.96588  0.43274  0.69829  Biso   1.000  Hf
  Hf68     1.0000 0.96775  0.31475  0.94989  Biso   1.000  Hf
  Hf69     1.0000 0.77216  0.11633  0.74899  Biso   1.000  Hf
  Hf70     1.0000 0.77104  0.13084  0.99898  Biso   1.000  Hf
  Hf71     1.0000 0.72732  0.38126  0.00021  Biso   1.000  Hf
  Hf72     1.0000 0.73160  0.36670  0.75069  Biso   1.000  Hf
  Hf73     1.0000 0.63206  0.51717  0.12682  Biso   1.000  Hf
  Hf74     1.0000 0.63457  0.73335  0.37564  Biso   1.000  Hf
  Hf75     1.0000 0.86470  0.76730  0.12604  Biso   1.000  Hf
  Hf76     1.0000 0.86782  0.98421  0.37385  Biso   1.000  Hf
  Hf77     1.0000 0.53631  0.68406  0.19427  Biso   1.000  Hf
  Hf78     1.0000 0.53607  0.56549  0.44484  Biso   1.000  Hf
  Hf79     1.0000 0.96398  0.93372  0.19266  Biso   1.000  Hf
  Hf80     1.0000 0.96461  0.81706  0.44520  Biso   1.000  Hf
  Hf81     1.0000 0.76993  0.61744  0.25046  Biso   1.000  Hf
  Hf82     1.0000 0.77051  0.63246  0.50016  Biso   1.000  Hf
  Hf83     1.0000 0.73109  0.88298  0.49858  Biso   1.000  Hf
  Hf84     1.0000 0.72915  0.86706  0.24921  Biso   1.000  Hf
  Hf85     1.0000 0.63606  0.51550  0.62610  Biso   1.000  Hf
  Hf86     1.0000 0.63570  0.73224  0.87577  Biso   1.000  Hf
  Hf87     1.0000 0.86705  0.76585  0.62547  Biso   1.000  Hf
  Hf88     1.0000 0.86654  0.98182  0.87554  Biso   1.000  Hf
  Hf89     1.0000 0.53770  0.68274  0.69470  Biso   1.000  Hf
  Hf90     1.0000 0.53665  0.56535  0.94425  Biso   1.000  Hf
  Hf91     1.0000 0.96592  0.93137  0.69670  Biso   1.000  Hf
  Hf92     1.0000 0.96362  0.81437  0.94455  Biso   1.000  Hf
  Hf93     1.0000 0.77234  0.61614  0.75047  Biso   1.000  Hf
  Hf94     1.0000 0.77067  0.63095  0.00046  Biso   1.000  Hf
  Hf95     1.0000 0.73016  0.88112  0.99943  Biso   1.000  Hf
  Hf96     1.0000 0.73106  0.86622  0.74925  Biso   1.000  Hf
  Co1      1.0000 0.09619  0.30253  0.10676  Biso   1.000  Co
