data_image0
_cell_length_a       10.0712
_cell_length_b       10.1803
_cell_length_c       5.21651
_cell_angle_alpha    90.0657
_cell_angle_beta     80.942
_cell_angle_gamma    89.2381

_symmetry_space_group_name_H-M    "P 1"
_symmetry_int_tables_number       1

loop_
  _symmetry_equiv_pos_as_xyz
  'x, y, z'

loop_
  _atom_site_label
  _atom_site_occupancy
  _atom_site_fract_x
  _atom_site_fract_y
  _atom_site_fract_z
  _atom_site_thermal_displace_type
  _atom_site_B_iso_or_equiv
  _atom_site_type_symbol
  Co1      1.0000 0.11922  0.01013  0.33684  Biso   1.000  Co
  Hf1      1.0000 0.14167  0.52271  0.29436  Biso   1.000  Hf
  Hf2      1.0000 0.63759  0.02188  0.29259  Biso   1.000  Hf
  Hf3      1.0000 0.63654  0.52011  0.29224  Biso   1.000  Hf
  Hf4      1.0000 0.14414  0.22379  0.77862  Biso   1.000  Hf
  Hf5      1.0000 0.13766  0.73354  0.79587  Biso   1.000  Hf
  Hf6      1.0000 0.64029  0.23028  0.79412  Biso   1.000  Hf
  Hf7      1.0000 0.63491  0.72838  0.79470  Biso   1.000  Hf
  Hf8      1.0000 0.35780  0.26834  0.19978  Biso   1.000  Hf
  Hf9      1.0000 0.35482  0.78010  0.20609  Biso   1.000  Hf
  Hf10     1.0000 0.86959  0.26511  0.21564  Biso   1.000  Hf
  Hf11     1.0000 0.85931  0.76884  0.21202  Biso   1.000  Hf
  Hf12     1.0000 0.36146  0.48044  0.70845  Biso   1.000  Hf
  Hf13     1.0000 0.35790  0.98465  0.70168  Biso   1.000  Hf
  Hf14     1.0000 0.86419  0.47666  0.71476  Biso   1.000  Hf
  Hf15     1.0000 0.85651  0.97656  0.71251  Biso   1.000  Hf
  O1       1.0000 0.04824  0.14449  0.15423  Biso   1.000  O
  O2       1.0000 0.03426  0.66648  0.16024  Biso   1.000  O
  O3       1.0000 0.53647  0.16931  0.15744  Biso   1.000  O
  O4       1.0000 0.53260  0.66978  0.15740  Biso   1.000  O
  O5       1.0000 0.03303  0.08058  0.63918  Biso   1.000  O
  O6       1.0000 0.03716  0.58210  0.66433  Biso   1.000  O
  O7       1.0000 0.53829  0.08212  0.65692  Biso   1.000  O
  O8       1.0000 0.53512  0.58289  0.65586  Biso   1.000  O
  O9       1.0000 0.46375  0.41738  0.34292  Biso   1.000  O
  O10      1.0000 0.46360  0.91934  0.34204  Biso   1.000  O
  O11      1.0000 0.97227  0.41060  0.35309  Biso   1.000  O
  O12      1.0000 0.96702  0.91512  0.34798  Biso   1.000  O
  O13      1.0000 0.47176  0.34102  0.84794  Biso   1.000  O
  O14      1.0000 0.45802  0.83285  0.83821  Biso   1.000  O
  O15      1.0000 0.96905  0.32703  0.85609  Biso   1.000  O
  O16      1.0000 0.96114  0.83174  0.84872  Biso   1.000  O
  O17      1.0000 0.26175  0.11784  0.44083  Biso   1.000  O
  O18      1.0000 0.27571  0.63525  0.48321  Biso   1.000  O
  O19      1.0000 0.77845  0.12668  0.48149  Biso   1.000  O
  O20      1.0000 0.77715  0.62638  0.48448  Biso   1.000  O
  O21      1.0000 0.29984  0.14304  0.92113  Biso   1.000  O
  O22      1.0000 0.27620  0.62621  0.98306  Biso   1.000  O
  O23      1.0000 0.77972  0.11974  0.98399  Biso   1.000  O
  O24      1.0000 0.77596  0.62033  0.98418  Biso   1.000  O
  O25      1.0000 0.22239  0.38313  0.01552  Biso   1.000  O
  O26      1.0000 0.21745  0.89775  0.02682  Biso   1.000  O
  O27      1.0000 0.72964  0.37647  0.02614  Biso   1.000  O
  O28      1.0000 0.71969  0.87818  0.02131  Biso   1.000  O
  O29      1.0000 0.22733  0.36821  0.51809  Biso   1.000  O
  O30      1.0000 0.21007  0.87733  0.51445  Biso   1.000  O
  O31      1.0000 0.72877  0.36944  0.52215  Biso   1.000  O
  O32      1.0000 0.72447  0.86971  0.52032  Biso   1.000  O
