data_image0
_cell_length_a       9.99246
_cell_length_b       10.4345
_cell_length_c       5.01957
_cell_angle_alpha    89.6602
_cell_angle_beta     90.2191
_cell_angle_gamma    90.0649

_symmetry_space_group_name_H-M    "P 1"
_symmetry_int_tables_number       1

loop_
  _symmetry_equiv_pos_as_xyz
  'x, y, z'

loop_
  _atom_site_label
  _atom_site_occupancy
  _atom_site_fract_x
  _atom_site_fract_y
  _atom_site_fract_z
  _atom_site_thermal_displace_type
  _atom_site_B_iso_or_equiv
  _atom_site_type_symbol
  Hf1      1.0000 0.13549  0.01875  0.24753  Biso   1.000  Hf
  Hf2      1.0000 0.14052  0.22383  0.75770  Biso   1.000  Hf
  Hf3      1.0000 0.36567  0.26415  0.24611  Biso   1.000  Hf
  Hf4      1.0000 0.36819  0.48322  0.74863  Biso   1.000  Hf
  Hf5      1.0000 0.02021  0.17235  0.42198  Biso   1.000  Hf
  Hf6      1.0000 0.03766  0.06140  0.89368  Biso   1.000  Hf
  Hf7      1.0000 0.46409  0.43265  0.38941  Biso   1.000  Hf
  Hf8      1.0000 0.46448  0.31496  0.88603  Biso   1.000  Hf
  Hf9      1.0000 0.27119  0.11504  0.49664  Biso   1.000  Hf
  Hf10     1.0000 0.28628  0.12230  0.98800  Biso   1.000  Hf
  Hf11     1.0000 0.23294  0.38611  0.00325  Biso   1.000  Hf
  Hf12     1.0000 0.22914  0.36677  0.50084  Biso   1.000  Hf
  Hf13     1.0000 0.13493  0.53076  0.25013  Biso   1.000  Hf
  Hf14     1.0000 0.13517  0.73775  0.75213  Biso   1.000  Hf
  Hf15     1.0000 0.36817  0.76673  0.25119  Biso   1.000  Hf
  Hf16     1.0000 0.36904  0.97928  0.74854  Biso   1.000  Hf
  Hf17     1.0000 0.03484  0.68709  0.39597  Biso   1.000  Hf
  Hf18     1.0000 0.03586  0.57012  0.89191  Biso   1.000  Hf
  Hf19     1.0000 0.46624  0.93190  0.38463  Biso   1.000  Hf
  Hf20     1.0000 0.46697  0.81406  0.88910  Biso   1.000  Hf
  Hf21     1.0000 0.27374  0.62096  0.50215  Biso   1.000  Hf
  Hf22     1.0000 0.27193  0.63538  0.99753  Biso   1.000  Hf
  Hf23     1.0000 0.23069  0.88118  0.99969  Biso   1.000  Hf
  Hf24     1.0000 0.23202  0.86754  0.49743  Biso   1.000  Hf
  Hf25     1.0000 0.63390  0.01391  0.24675  Biso   1.000  Hf
  Hf26     1.0000 0.63091  0.23032  0.74876  Biso   1.000  Hf
  Hf27     1.0000 0.85279  0.26418  0.25485  Biso   1.000  Hf
  Hf28     1.0000 0.86826  0.48223  0.75528  Biso   1.000  Hf
  Hf29     1.0000 0.53610  0.18144  0.38491  Biso   1.000  Hf
  Hf30     1.0000 0.54043  0.06213  0.88209  Biso   1.000  Hf
  Hf31     1.0000 0.96395  0.43402  0.39651  Biso   1.000  Hf
  Hf32     1.0000 0.96973  0.31636  0.90583  Biso   1.000  Hf
  Hf33     1.0000 0.76589  0.11410  0.49865  Biso   1.000  Hf
  Hf34     1.0000 0.77142  0.13152  0.99570  Biso   1.000  Hf
  Hf35     1.0000 0.72845  0.38111  0.00114  Biso   1.000  Hf
  Hf36     1.0000 0.72741  0.36745  0.50491  Biso   1.000  Hf
  Hf37     1.0000 0.63394  0.51603  0.25341  Biso   1.000  Hf
  Hf38     1.0000 0.63599  0.73174  0.75078  Biso   1.000  Hf
  Hf39     1.0000 0.86552  0.76679  0.25099  Biso   1.000  Hf
  Hf40     1.0000 0.86777  0.98217  0.74708  Biso   1.000  Hf
  Hf41     1.0000 0.53768  0.68236  0.38913  Biso   1.000  Hf
  Hf42     1.0000 0.53613  0.56502  0.88953  Biso   1.000  Hf
  Hf43     1.0000 0.96621  0.93134  0.39096  Biso   1.000  Hf
  Hf44     1.0000 0.96458  0.81579  0.89150  Biso   1.000  Hf
  Hf45     1.0000 0.77144  0.61577  0.50190  Biso   1.000  Hf
  Hf46     1.0000 0.77050  0.63123  0.00141  Biso   1.000  Hf
  Hf47     1.0000 0.73163  0.88170  0.99684  Biso   1.000  Hf
  Hf48     1.0000 0.73075  0.86552  0.49766  Biso   1.000  Hf
  Co1      1.0000 0.09842  0.30267  0.21668  Biso   1.000  Co
