data_image0
_cell_length_a       10.1007
_cell_length_b       10.2871
_cell_length_c       5.0777
_cell_angle_alpha    89.4468
_cell_angle_beta     86.0586
_cell_angle_gamma    87.7546

_symmetry_space_group_name_H-M    "P 1"
_symmetry_int_tables_number       1

loop_
  _symmetry_equiv_pos_as_xyz
  'x, y, z'

loop_
  _atom_site_label
  _atom_site_occupancy
  _atom_site_fract_x
  _atom_site_fract_y
  _atom_site_fract_z
  _atom_site_thermal_displace_type
  _atom_site_B_iso_or_equiv
  _atom_site_type_symbol
  Hf1      1.0000 0.11347  0.95811  0.23252  Biso   1.000  Hf
  Hf2      1.0000 0.12674  0.26232  0.78973  Biso   1.000  Hf
  Hf3      1.0000 0.38567  0.26733  0.31211  Biso   1.000  Hf
  Hf4      1.0000 0.35728  0.99742  0.75083  Biso   1.000  Hf
  Hf5      1.0000 0.95849  0.16296  0.86983  Biso   1.000  Hf
  Hf6      1.0000 0.97921  0.09139  0.38701  Biso   1.000  Hf
  Hf7      1.0000 0.00996  0.34442  0.48449  Biso   1.000  Hf
  Hf8      1.0000 0.99851  0.41232  0.99521  Biso   1.000  Hf
  Hf9      1.0000 0.26708  0.15305  0.54404  Biso   1.000  Hf
  Hf10     1.0000 0.21183  0.08688  0.99713  Biso   1.000  Hf
  Hf11     1.0000 0.23639  0.33097  0.08504  Biso   1.000  Hf
  Hf12     1.0000 0.25931  0.40880  0.56168  Biso   1.000  Hf
  Hf13     1.0000 0.12322  0.49515  0.25749  Biso   1.000  Hf
  Hf14     1.0000 0.11324  0.75100  0.74293  Biso   1.000  Hf
  Hf15     1.0000 0.38164  0.73965  0.24173  Biso   1.000  Hf
  Hf16     1.0000 0.39538  0.51537  0.74142  Biso   1.000  Hf
  Hf17     1.0000 0.03439  0.66184  0.08269  Biso   1.000  Hf
  Hf18     1.0000 0.03410  0.58947  0.58110  Biso   1.000  Hf
  Hf19     1.0000 0.98548  0.84337  0.48991  Biso   1.000  Hf
  Hf20     1.0000 0.98520  0.89797  0.96737  Biso   1.000  Hf
  Hf21     1.0000 0.28119  0.66271  0.57017  Biso   1.000  Hf
  Hf22     1.0000 0.28730  0.57763  0.08051  Biso   1.000  Hf
  Hf23     1.0000 0.24755  0.83310  0.00291  Biso   1.000  Hf
  Hf24     1.0000 0.23311  0.90059  0.51632  Biso   1.000  Hf
  Hf25     1.0000 0.60172  0.99690  0.22865  Biso   1.000  Hf
  Hf26     1.0000 0.61185  0.23739  0.77734  Biso   1.000  Hf
  Hf27     1.0000 0.87944  0.25457  0.21953  Biso   1.000  Hf
  Hf28     1.0000 0.86242  0.01499  0.70882  Biso   1.000  Hf
  Hf29     1.0000 0.47275  0.14160  0.02859  Biso   1.000  Hf
  Hf30     1.0000 0.50586  0.10648  0.53066  Biso   1.000  Hf
  Hf31     1.0000 0.51752  0.36632  0.51648  Biso   1.000  Hf
  Hf32     1.0000 0.49727  0.39134  0.01661  Biso   1.000  Hf
  Hf33     1.0000 0.75064  0.16555  0.50586  Biso   1.000  Hf
  Hf34     1.0000 0.72651  0.10403  0.99601  Biso   1.000  Hf
  Hf35     1.0000 0.74749  0.35699  0.94299  Biso   1.000  Hf
  Hf36     1.0000 0.77363  0.41489  0.42593  Biso   1.000  Hf
  Hf37     1.0000 0.63341  0.49460  0.20943  Biso   1.000  Hf
  Hf38     1.0000 0.62492  0.76456  0.71559  Biso   1.000  Hf
  Hf39     1.0000 0.86219  0.76105  0.21601  Biso   1.000  Hf
  Hf40     1.0000 0.87039  0.49271  0.71800  Biso   1.000  Hf
  Hf41     1.0000 0.51979  0.64437  0.97187  Biso   1.000  Hf
  Hf42     1.0000 0.52272  0.61298  0.47185  Biso   1.000  Hf
  Hf43     1.0000 0.48747  0.85876  0.49191  Biso   1.000  Hf
  Hf44     1.0000 0.48843  0.89335  0.99362  Biso   1.000  Hf
  Hf45     1.0000 0.77646  0.65949  0.52721  Biso   1.000  Hf
  Hf46     1.0000 0.77616  0.60557  0.01888  Biso   1.000  Hf
  Hf47     1.0000 0.73870  0.85831  0.96802  Biso   1.000  Hf
  Hf48     1.0000 0.73748  0.90717  0.46299  Biso   1.000  Hf
  Co1      1.0000 0.12905  0.20225  0.29248  Biso   1.000  Co
