data_image0
_cell_length_a       9.99896
_cell_length_b       10.1849
_cell_length_c       9.99895
_cell_angle_alpha    90
_cell_angle_beta     89.9996
_cell_angle_gamma    90

_symmetry_space_group_name_H-M    "P 1"
_symmetry_int_tables_number       1

loop_
  _symmetry_equiv_pos_as_xyz
  'x, y, z'

loop_
  _atom_site_label
  _atom_site_occupancy
  _atom_site_fract_x
  _atom_site_fract_y
  _atom_site_fract_z
  _atom_site_thermal_displace_type
  _atom_site_B_iso_or_equiv
  _atom_site_type_symbol
  Cr1      1.0000 0.12491  0.00004  0.12491  Biso   1.000  Cr
  Hf1      1.0000 0.12834  0.25192  0.37487  Biso   1.000  Hf
  Hf2      1.0000 0.37487  0.25192  0.12834  Biso   1.000  Hf
  Hf3      1.0000 0.37253  0.00256  0.37253  Biso   1.000  Hf
  Hf4      1.0000 0.98181  0.15414  0.98181  Biso   1.000  Hf
  Hf5      1.0000 0.01625  0.09276  0.23357  Biso   1.000  Hf
  Hf6      1.0000 0.00082  0.34792  0.24899  Biso   1.000  Hf
  Hf7      1.0000 0.99974  0.40115  0.99974  Biso   1.000  Hf
  Hf8      1.0000 0.26800  0.15414  0.26801  Biso   1.000  Hf
  Hf9      1.0000 0.23357  0.09276  0.01625  Biso   1.000  Hf
  Hf10     1.0000 0.24899  0.34792  0.00083  Biso   1.000  Hf
  Hf11     1.0000 0.25008  0.40115  0.25008  Biso   1.000  Hf
  Hf12     1.0000 0.12491  0.00005  0.62491  Biso   1.000  Hf
  Hf13     1.0000 0.12148  0.25192  0.87495  Biso   1.000  Hf
  Hf14     1.0000 0.37446  0.24787  0.62719  Biso   1.000  Hf
  Hf15     1.0000 0.37252  0.99755  0.87730  Biso   1.000  Hf
  Hf16     1.0000 0.99284  0.14597  0.48447  Biso   1.000  Hf
  Hf17     1.0000 0.00155  0.10484  0.73972  Biso   1.000  Hf
  Hf18     1.0000 0.99750  0.35414  0.74946  Biso   1.000  Hf
  Hf19     1.0000 0.00190  0.39610  0.49969  Biso   1.000  Hf
  Hf20     1.0000 0.25698  0.14598  0.76535  Biso   1.000  Hf
  Hf21     1.0000 0.24827  0.10485  0.51010  Biso   1.000  Hf
  Hf22     1.0000 0.25232  0.35414  0.50036  Biso   1.000  Hf
  Hf23     1.0000 0.24792  0.39610  0.75013  Biso   1.000  Hf
  Hf24     1.0000 0.12491  0.50006  0.12491  Biso   1.000  Hf
  Hf25     1.0000 0.12148  0.74819  0.37487  Biso   1.000  Hf
  Hf26     1.0000 0.37487  0.74818  0.12148  Biso   1.000  Hf
  Hf27     1.0000 0.37700  0.50104  0.37700  Biso   1.000  Hf
  Hf28     1.0000 0.00083  0.65219  0.00083  Biso   1.000  Hf
  Hf29     1.0000 0.99974  0.59896  0.25008  Biso   1.000  Hf
  Hf30     1.0000 0.98183  0.84597  0.26799  Biso   1.000  Hf
  Hf31     1.0000 0.01624  0.90735  0.01624  Biso   1.000  Hf
  Hf32     1.0000 0.24899  0.65219  0.24899  Biso   1.000  Hf
  Hf33     1.0000 0.25008  0.59896  0.99974  Biso   1.000  Hf
  Hf34     1.0000 0.26799  0.84597  0.98183  Biso   1.000  Hf
  Hf35     1.0000 0.23358  0.90735  0.23358  Biso   1.000  Hf
  Hf36     1.0000 0.12491  0.50005  0.62491  Biso   1.000  Hf
  Hf37     1.0000 0.12834  0.74819  0.87494  Biso   1.000  Hf
  Hf38     1.0000 0.37446  0.75224  0.62262  Biso   1.000  Hf
  Hf39     1.0000 0.37700  0.49907  0.87282  Biso   1.000  Hf
  Hf40     1.0000 0.99750  0.64597  0.50036  Biso   1.000  Hf
  Hf41     1.0000 0.00190  0.60401  0.75013  Biso   1.000  Hf
  Hf42     1.0000 0.99284  0.85414  0.76534  Biso   1.000  Hf
  Hf43     1.0000 0.00155  0.89526  0.51009  Biso   1.000  Hf
  Hf44     1.0000 0.25232  0.64597  0.74946  Biso   1.000  Hf
  Hf45     1.0000 0.24792  0.60401  0.49969  Biso   1.000  Hf
  Hf46     1.0000 0.25698  0.85413  0.48447  Biso   1.000  Hf
  Hf47     1.0000 0.24826  0.89526  0.73972  Biso   1.000  Hf
  Hf48     1.0000 0.62491  0.00005  0.12491  Biso   1.000  Hf
  Hf49     1.0000 0.62719  0.24786  0.37446  Biso   1.000  Hf
  Hf50     1.0000 0.87495  0.25192  0.12148  Biso   1.000  Hf
  Hf51     1.0000 0.87730  0.99755  0.37252  Biso   1.000  Hf
  Hf52     1.0000 0.48447  0.14597  0.99284  Biso   1.000  Hf
  Hf53     1.0000 0.51010  0.10484  0.24827  Biso   1.000  Hf
  Hf54     1.0000 0.50036  0.35414  0.25232  Biso   1.000  Hf
  Hf55     1.0000 0.49969  0.39610  0.00190  Biso   1.000  Hf
  Hf56     1.0000 0.76535  0.14597  0.25698  Biso   1.000  Hf
  Hf57     1.0000 0.73972  0.10485  0.00155  Biso   1.000  Hf
  Hf58     1.0000 0.74946  0.35414  0.99750  Biso   1.000  Hf
  Hf59     1.0000 0.75013  0.39610  0.24792  Biso   1.000  Hf
  Hf60     1.0000 0.62491  0.00006  0.62491  Biso   1.000  Hf
  Hf61     1.0000 0.62262  0.24786  0.87536  Biso   1.000  Hf
  Hf62     1.0000 0.87536  0.24786  0.62262  Biso   1.000  Hf
  Hf63     1.0000 0.87729  0.00256  0.87729  Biso   1.000  Hf
  Hf64     1.0000 0.49432  0.14721  0.49432  Biso   1.000  Hf
  Hf65     1.0000 0.50271  0.10297  0.74710  Biso   1.000  Hf
  Hf66     1.0000 0.49745  0.35340  0.75236  Biso   1.000  Hf
  Hf67     1.0000 0.50161  0.39609  0.50161  Biso   1.000  Hf
  Hf68     1.0000 0.75549  0.14722  0.75549  Biso   1.000  Hf
  Hf69     1.0000 0.74710  0.10298  0.50272  Biso   1.000  Hf
  Hf70     1.0000 0.75236  0.35339  0.49745  Biso   1.000  Hf
  Hf71     1.0000 0.74821  0.39609  0.74821  Biso   1.000  Hf
  Hf72     1.0000 0.62491  0.50005  0.12491  Biso   1.000  Hf
  Hf73     1.0000 0.62263  0.75224  0.37446  Biso   1.000  Hf
  Hf74     1.0000 0.87495  0.74819  0.12834  Biso   1.000  Hf
  Hf75     1.0000 0.87281  0.49907  0.37700  Biso   1.000  Hf
  Hf76     1.0000 0.50036  0.64597  0.99750  Biso   1.000  Hf
  Hf77     1.0000 0.49969  0.60401  0.24792  Biso   1.000  Hf
  Hf78     1.0000 0.48448  0.85413  0.25698  Biso   1.000  Hf
  Hf79     1.0000 0.51009  0.89526  0.00155  Biso   1.000  Hf
  Hf80     1.0000 0.74946  0.64597  0.25232  Biso   1.000  Hf
  Hf81     1.0000 0.75013  0.60401  0.00190  Biso   1.000  Hf
  Hf82     1.0000 0.76534  0.85413  0.99284  Biso   1.000  Hf
  Hf83     1.0000 0.73973  0.89526  0.24826  Biso   1.000  Hf
  Hf84     1.0000 0.62491  0.50005  0.62491  Biso   1.000  Hf
  Hf85     1.0000 0.62719  0.75224  0.87536  Biso   1.000  Hf
  Hf86     1.0000 0.87536  0.75224  0.62719  Biso   1.000  Hf
  Hf87     1.0000 0.87281  0.50104  0.87281  Biso   1.000  Hf
  Hf88     1.0000 0.49745  0.64671  0.49745  Biso   1.000  Hf
  Hf89     1.0000 0.50161  0.60402  0.74821  Biso   1.000  Hf
  Hf90     1.0000 0.49432  0.85289  0.75550  Biso   1.000  Hf
  Hf91     1.0000 0.50272  0.89713  0.50272  Biso   1.000  Hf
  Hf92     1.0000 0.75236  0.64671  0.75236  Biso   1.000  Hf
  Hf93     1.0000 0.74821  0.60402  0.50161  Biso   1.000  Hf
  Hf94     1.0000 0.75550  0.85289  0.49432  Biso   1.000  Hf
  Hf95     1.0000 0.74710  0.89713  0.74710  Biso   1.000  Hf
