data_image0
_cell_length_a       10.0501
_cell_length_b       5.18357
_cell_length_c       10.0501
_cell_angle_alpha    89.9997
_cell_angle_beta     88.6315
_cell_angle_gamma    89.9999

_symmetry_space_group_name_H-M    "P 1"
_symmetry_int_tables_number       1

loop_
  _symmetry_equiv_pos_as_xyz
  'x, y, z'

loop_
  _atom_site_label
  _atom_site_occupancy
  _atom_site_fract_x
  _atom_site_fract_y
  _atom_site_fract_z
  _atom_site_thermal_displace_type
  _atom_site_B_iso_or_equiv
  _atom_site_type_symbol
  Hf1      1.0000 0.12491  0.89600  0.12491  Biso   1.000  Hf
  Hf2      1.0000 0.13725  0.50690  0.38578  Biso   1.000  Hf
  Hf3      1.0000 0.38578  0.50690  0.13725  Biso   1.000  Hf
  Hf4      1.0000 0.38009  0.01918  0.38009  Biso   1.000  Hf
  Hf5      1.0000 0.98655  0.29804  0.98655  Biso   1.000  Hf
  Hf6      1.0000 0.01047  0.14034  0.23935  Biso   1.000  Hf
  Hf7      1.0000 0.00779  0.62281  0.24202  Biso   1.000  Hf
  Hf8      1.0000 0.98705  0.79595  0.98705  Biso   1.000  Hf
  Hf9      1.0000 0.26327  0.29804  0.26327  Biso   1.000  Hf
  Hf10     1.0000 0.23935  0.14034  0.01047  Biso   1.000  Hf
  Hf11     1.0000 0.24203  0.62281  0.00779  Biso   1.000  Hf
  Hf12     1.0000 0.26277  0.79595  0.26277  Biso   1.000  Hf
  Hf13     1.0000 0.12491  0.99874  0.62491  Biso   1.000  Hf
  Hf14     1.0000 0.11256  0.50690  0.86404  Biso   1.000  Hf
  Hf15     1.0000 0.37557  0.51248  0.63149  Biso   1.000  Hf
  Hf16     1.0000 0.37437  0.01686  0.87545  Biso   1.000  Hf
  Hf17     1.0000 0.99536  0.30298  0.49141  Biso   1.000  Hf
  Hf18     1.0000 0.99850  0.21925  0.74075  Biso   1.000  Hf
  Hf19     1.0000 0.99377  0.72183  0.73966  Biso   1.000  Hf
  Hf20     1.0000 0.00788  0.80745  0.49030  Biso   1.000  Hf
  Hf21     1.0000 0.25445  0.30299  0.75842  Biso   1.000  Hf
  Hf22     1.0000 0.25132  0.21925  0.50906  Biso   1.000  Hf
  Hf23     1.0000 0.25605  0.72182  0.51016  Biso   1.000  Hf
  Hf24     1.0000 0.24194  0.80745  0.75952  Biso   1.000  Hf
  Hf25     1.0000 0.62491  0.99874  0.12491  Biso   1.000  Hf
  Hf26     1.0000 0.63149  0.51248  0.37557  Biso   1.000  Hf
  Hf27     1.0000 0.86404  0.50690  0.11256  Biso   1.000  Hf
  Hf28     1.0000 0.87545  0.01686  0.37437  Biso   1.000  Hf
  Hf29     1.0000 0.49140  0.30298  0.99536  Biso   1.000  Hf
  Hf30     1.0000 0.50906  0.21925  0.25132  Biso   1.000  Hf
  Hf31     1.0000 0.51016  0.72183  0.25605  Biso   1.000  Hf
  Hf32     1.0000 0.49030  0.80745  0.00788  Biso   1.000  Hf
  Hf33     1.0000 0.75842  0.30298  0.25446  Biso   1.000  Hf
  Hf34     1.0000 0.74075  0.21926  0.99850  Biso   1.000  Hf
  Hf35     1.0000 0.73966  0.72183  0.99377  Biso   1.000  Hf
  Hf36     1.0000 0.75952  0.80745  0.24194  Biso   1.000  Hf
  Hf37     1.0000 0.62491  0.01721  0.62491  Biso   1.000  Hf
  Hf38     1.0000 0.61833  0.51248  0.87425  Biso   1.000  Hf
  Hf39     1.0000 0.87425  0.51247  0.61833  Biso   1.000  Hf
  Hf40     1.0000 0.86973  0.01918  0.86973  Biso   1.000  Hf
  Hf41     1.0000 0.49988  0.31971  0.49988  Biso   1.000  Hf
  Hf42     1.0000 0.50079  0.22054  0.74903  Biso   1.000  Hf
  Hf43     1.0000 0.49342  0.72075  0.75640  Biso   1.000  Hf
  Hf44     1.0000 0.50458  0.81662  0.50458  Biso   1.000  Hf
  Hf45     1.0000 0.74994  0.31971  0.74994  Biso   1.000  Hf
  Hf46     1.0000 0.74903  0.22054  0.50079  Biso   1.000  Hf
  Hf47     1.0000 0.75640  0.72074  0.49342  Biso   1.000  Hf
  Hf48     1.0000 0.74523  0.81662  0.74523  Biso   1.000  Hf
  Cr1      1.0000 0.12491  0.36943  0.12491  Biso   1.000  Cr
