data_image0
_cell_length_a       9.90918
_cell_length_b       10.3685
_cell_length_c       4.98431
_cell_angle_alpha    90.551
_cell_angle_beta     89.5124
_cell_angle_gamma    90.3091

_symmetry_space_group_name_H-M    "P 1"
_symmetry_int_tables_number       1

loop_
  _symmetry_equiv_pos_as_xyz
  'x, y, z'

loop_
  _atom_site_label
  _atom_site_occupancy
  _atom_site_fract_x
  _atom_site_fract_y
  _atom_site_fract_z
  _atom_site_thermal_displace_type
  _atom_site_B_iso_or_equiv
  _atom_site_type_symbol
  Cr1      1.0000 0.12402  0.03151  0.22827  Biso   1.000  Cr
  Hf1      1.0000 0.13229  0.23266  0.74314  Biso   1.000  Hf
  Hf2      1.0000 0.36494  0.26311  0.24457  Biso   1.000  Hf
  Hf3      1.0000 0.36712  0.48370  0.75093  Biso   1.000  Hf
  Hf4      1.0000 0.03255  0.18052  0.38755  Biso   1.000  Hf
  Hf5      1.0000 0.03558  0.06728  0.91287  Biso   1.000  Hf
  Hf6      1.0000 0.46337  0.43294  0.38472  Biso   1.000  Hf
  Hf7      1.0000 0.46307  0.31615  0.88707  Biso   1.000  Hf
  Hf8      1.0000 0.25608  0.10468  0.47584  Biso   1.000  Hf
  Hf9      1.0000 0.26644  0.13377  0.98735  Biso   1.000  Hf
  Hf10     1.0000 0.22830  0.38264  0.99559  Biso   1.000  Hf
  Hf11     1.0000 0.23084  0.36230  0.49600  Biso   1.000  Hf
  Hf12     1.0000 0.13495  0.51484  0.25232  Biso   1.000  Hf
  Hf13     1.0000 0.13543  0.73352  0.76277  Biso   1.000  Hf
  Hf14     1.0000 0.36466  0.76763  0.26152  Biso   1.000  Hf
  Hf15     1.0000 0.35813  0.98137  0.75879  Biso   1.000  Hf
  Hf16     1.0000 0.03780  0.68471  0.39182  Biso   1.000  Hf
  Hf17     1.0000 0.03361  0.56549  0.89644  Biso   1.000  Hf
  Hf18     1.0000 0.46979  0.93179  0.40658  Biso   1.000  Hf
  Hf19     1.0000 0.46474  0.82007  0.90328  Biso   1.000  Hf
  Hf20     1.0000 0.26888  0.61135  0.50304  Biso   1.000  Hf
  Hf21     1.0000 0.27184  0.63344  0.00364  Biso   1.000  Hf
  Hf22     1.0000 0.22221  0.89027  0.03575  Biso   1.000  Hf
  Hf23     1.0000 0.24237  0.85442  0.53452  Biso   1.000  Hf
  Hf24     1.0000 0.63105  0.01511  0.24543  Biso   1.000  Hf
  Hf25     1.0000 0.63251  0.23256  0.74954  Biso   1.000  Hf
  Hf26     1.0000 0.86465  0.26626  0.24714  Biso   1.000  Hf
  Hf27     1.0000 0.86465  0.48437  0.74983  Biso   1.000  Hf
  Hf28     1.0000 0.53227  0.18293  0.39213  Biso   1.000  Hf
  Hf29     1.0000 0.53235  0.06813  0.89444  Biso   1.000  Hf
  Hf30     1.0000 0.96511  0.43158  0.39103  Biso   1.000  Hf
  Hf31     1.0000 0.96266  0.31484  0.88413  Biso   1.000  Hf
  Hf32     1.0000 0.76922  0.11578  0.49108  Biso   1.000  Hf
  Hf33     1.0000 0.77087  0.13299  0.99066  Biso   1.000  Hf
  Hf34     1.0000 0.72883  0.38317  0.99835  Biso   1.000  Hf
  Hf35     1.0000 0.72798  0.36699  0.49719  Biso   1.000  Hf
  Hf36     1.0000 0.63355  0.51784  0.25245  Biso   1.000  Hf
  Hf37     1.0000 0.63397  0.73683  0.75023  Biso   1.000  Hf
  Hf38     1.0000 0.87338  0.76619  0.24218  Biso   1.000  Hf
  Hf39     1.0000 0.86807  0.98720  0.74496  Biso   1.000  Hf
  Hf40     1.0000 0.53598  0.68441  0.39516  Biso   1.000  Hf
  Hf41     1.0000 0.53759  0.56772  0.88778  Biso   1.000  Hf
  Hf42     1.0000 0.98904  0.94079  0.37721  Biso   1.000  Hf
  Hf43     1.0000 0.96249  0.81847  0.87622  Biso   1.000  Hf
  Hf44     1.0000 0.77207  0.61736  0.49790  Biso   1.000  Hf
  Hf45     1.0000 0.77020  0.63589  0.99924  Biso   1.000  Hf
  Hf46     1.0000 0.73200  0.88598  0.99176  Biso   1.000  Hf
  Hf47     1.0000 0.74181  0.86754  0.49109  Biso   1.000  Hf
