data_image0
_cell_length_a       10.0016
_cell_length_b       10.5193
_cell_length_c       5.03646
_cell_angle_alpha    89.4463
_cell_angle_beta     89.583
_cell_angle_gamma    89.8185

_symmetry_space_group_name_H-M    "P 1"
_symmetry_int_tables_number       1

loop_
  _symmetry_equiv_pos_as_xyz
  'x, y, z'

loop_
  _atom_site_label
  _atom_site_occupancy
  _atom_site_fract_x
  _atom_site_fract_y
  _atom_site_fract_z
  _atom_site_thermal_displace_type
  _atom_site_B_iso_or_equiv
  _atom_site_type_symbol
  Hf1      1.0000 0.13399  0.01159  0.24829  Biso   1.000  Hf
  Hf2      1.0000 0.12799  0.22047  0.72718  Biso   1.000  Hf
  Hf3      1.0000 0.37541  0.27051  0.25456  Biso   1.000  Hf
  Hf4      1.0000 0.36844  0.48629  0.74724  Biso   1.000  Hf
  Hf5      1.0000 0.01417  0.16384  0.40851  Biso   1.000  Hf
  Hf6      1.0000 0.02985  0.05900  0.89913  Biso   1.000  Hf
  Hf7      1.0000 0.47375  0.43131  0.40474  Biso   1.000  Hf
  Hf8      1.0000 0.47044  0.31901  0.89985  Biso   1.000  Hf
  Hf9      1.0000 0.26660  0.10389  0.51623  Biso   1.000  Hf
  Hf10     1.0000 0.24379  0.16104  0.04013  Biso   1.000  Hf
  Hf11     1.0000 0.24340  0.40281  0.01474  Biso   1.000  Hf
  Hf12     1.0000 0.23406  0.36189  0.50494  Biso   1.000  Hf
  Hf13     1.0000 0.13561  0.53221  0.23947  Biso   1.000  Hf
  Hf14     1.0000 0.13293  0.73878  0.74129  Biso   1.000  Hf
  Hf15     1.0000 0.37119  0.76322  0.24216  Biso   1.000  Hf
  Hf16     1.0000 0.37677  0.97656  0.73285  Biso   1.000  Hf
  Hf17     1.0000 0.02956  0.68474  0.40343  Biso   1.000  Hf
  Hf18     1.0000 0.03429  0.57151  0.88822  Biso   1.000  Hf
  Hf19     1.0000 0.47024  0.92613  0.38828  Biso   1.000  Hf
  Hf20     1.0000 0.47222  0.81444  0.88668  Biso   1.000  Hf
  Hf21     1.0000 0.27536  0.61835  0.49201  Biso   1.000  Hf
  Hf22     1.0000 0.26967  0.64651  0.98500  Biso   1.000  Hf
  Hf23     1.0000 0.23821  0.89337  0.98734  Biso   1.000  Hf
  Hf24     1.0000 0.23363  0.86118  0.48388  Biso   1.000  Hf
  Hf25     1.0000 0.63605  0.01305  0.24736  Biso   1.000  Hf
  Hf26     1.0000 0.63163  0.23210  0.74755  Biso   1.000  Hf
  Hf27     1.0000 0.85697  0.26114  0.24435  Biso   1.000  Hf
  Hf28     1.0000 0.87203  0.47980  0.74651  Biso   1.000  Hf
  Hf29     1.0000 0.53213  0.17460  0.40770  Biso   1.000  Hf
  Hf30     1.0000 0.52520  0.07015  0.90880  Biso   1.000  Hf
  Hf31     1.0000 0.97755  0.42022  0.39522  Biso   1.000  Hf
  Hf32     1.0000 0.97432  0.31968  0.91159  Biso   1.000  Hf
  Hf33     1.0000 0.76362  0.10977  0.49741  Biso   1.000  Hf
  Hf34     1.0000 0.76542  0.13141  0.99156  Biso   1.000  Hf
  Hf35     1.0000 0.73239  0.38371  0.99463  Biso   1.000  Hf
  Hf36     1.0000 0.73291  0.36419  0.50078  Biso   1.000  Hf
  Hf37     1.0000 0.63726  0.51489  0.24875  Biso   1.000  Hf
  Hf38     1.0000 0.63752  0.72858  0.74682  Biso   1.000  Hf
  Hf39     1.0000 0.86553  0.76453  0.24713  Biso   1.000  Hf
  Hf40     1.0000 0.86719  0.98070  0.74436  Biso   1.000  Hf
  Hf41     1.0000 0.53859  0.68016  0.39132  Biso   1.000  Hf
  Hf42     1.0000 0.53377  0.56735  0.89947  Biso   1.000  Hf
  Hf43     1.0000 0.96684  0.92587  0.39707  Biso   1.000  Hf
  Hf44     1.0000 0.96764  0.81689  0.89965  Biso   1.000  Hf
  Hf45     1.0000 0.77295  0.61041  0.49518  Biso   1.000  Hf
  Hf46     1.0000 0.77208  0.63154  0.99472  Biso   1.000  Hf
  Hf47     1.0000 0.73093  0.88267  0.99401  Biso   1.000  Hf
  Hf48     1.0000 0.73112  0.86161  0.49497  Biso   1.000  Hf
  Cr1      1.0000 0.11080  0.30102  0.21297  Biso   1.000  Cr
