data_image0
_cell_length_a       10.0551
_cell_length_b       10.2306
_cell_length_c       5.19387
_cell_angle_alpha    89.9365
_cell_angle_beta     80.289
_cell_angle_gamma    89.9126

_symmetry_space_group_name_H-M    "P 1"
_symmetry_int_tables_number       1

loop_
  _symmetry_equiv_pos_as_xyz
  'x, y, z'

loop_
  _atom_site_label
  _atom_site_occupancy
  _atom_site_fract_x
  _atom_site_fract_y
  _atom_site_fract_z
  _atom_site_thermal_displace_type
  _atom_site_B_iso_or_equiv
  _atom_site_type_symbol
  Cr1      1.0000 0.13341  0.02445  0.29924  Biso   1.000  Cr
  Hf1      1.0000 0.14055  0.22528  0.79079  Biso   1.000  Hf
  Hf2      1.0000 0.35868  0.26915  0.21075  Biso   1.000  Hf
  Hf3      1.0000 0.36086  0.47907  0.70944  Biso   1.000  Hf
  O1       1.0000 0.03757  0.15670  0.15585  Biso   1.000  O
  O2       1.0000 0.03908  0.08276  0.62901  Biso   1.000  O
  O3       1.0000 0.46248  0.42132  0.33578  Biso   1.000  O
  O4       1.0000 0.46084  0.32656  0.83626  Biso   1.000  O
  O5       1.0000 0.27293  0.12435  0.47762  Biso   1.000  O
  O6       1.0000 0.27226  0.11759  0.99428  Biso   1.000  O
  O7       1.0000 0.22185  0.37835  0.01944  Biso   1.000  O
  O8       1.0000 0.22358  0.36946  0.52020  Biso   1.000  O
  Hf4      1.0000 0.14026  0.52169  0.29282  Biso   1.000  Hf
  Hf5      1.0000 0.13988  0.73169  0.79122  Biso   1.000  Hf
  Hf6      1.0000 0.35664  0.77642  0.20944  Biso   1.000  Hf
  Hf7      1.0000 0.35616  0.97901  0.70968  Biso   1.000  Hf
  O9       1.0000 0.03609  0.66888  0.16163  Biso   1.000  O
  O10      1.0000 0.03694  0.58015  0.66397  Biso   1.000  O
  O11      1.0000 0.46419  0.91992  0.33971  Biso   1.000  O
  O12      1.0000 0.46038  0.82900  0.83539  Biso   1.000  O
  O13      1.0000 0.27726  0.63150  0.48311  Biso   1.000  O
  O14      1.0000 0.27704  0.62199  0.98260  Biso   1.000  O
  O15      1.0000 0.21663  0.88497  0.02423  Biso   1.000  O
  O16      1.0000 0.21858  0.87528  0.51381  Biso   1.000  O
  Hf8      1.0000 0.63780  0.02121  0.29210  Biso   1.000  Hf
  Hf9      1.0000 0.63841  0.22855  0.79173  Biso   1.000  Hf
  Hf10     1.0000 0.86317  0.26917  0.20975  Biso   1.000  Hf
  Hf11     1.0000 0.86181  0.47842  0.71019  Biso   1.000  Hf
  O17      1.0000 0.53728  0.17200  0.16529  Biso   1.000  O
  O18      1.0000 0.53480  0.07903  0.66536  Biso   1.000  O
  O19      1.0000 0.96649  0.41651  0.34141  Biso   1.000  O
  O20      1.0000 0.96538  0.32704  0.84153  Biso   1.000  O
  O21      1.0000 0.77652  0.12860  0.48085  Biso   1.000  O
  O22      1.0000 0.77857  0.12037  0.97901  Biso   1.000  O
  O23      1.0000 0.72448  0.37901  0.01993  Biso   1.000  O
  O24      1.0000 0.72403  0.37037  0.51882  Biso   1.000  O
  Hf12     1.0000 0.63836  0.52248  0.29227  Biso   1.000  Hf
  Hf13     1.0000 0.63830  0.72958  0.79484  Biso   1.000  Hf
  Hf14     1.0000 0.86414  0.77315  0.20783  Biso   1.000  Hf
  Hf15     1.0000 0.86335  0.98022  0.70333  Biso   1.000  Hf
  O25      1.0000 0.53549  0.67249  0.16434  Biso   1.000  O
  O26      1.0000 0.53765  0.57788  0.66651  Biso   1.000  O
  O27      1.0000 0.97729  0.92290  0.33018  Biso   1.000  O
  O28      1.0000 0.96393  0.83149  0.83624  Biso   1.000  O
  O29      1.0000 0.77789  0.62987  0.48339  Biso   1.000  O
  O30      1.0000 0.77822  0.62212  0.98411  Biso   1.000  O
  O31      1.0000 0.72325  0.87979  0.01818  Biso   1.000  O
  O32      1.0000 0.72924  0.87221  0.51651  Biso   1.000  O
