data_image0
_cell_length_a       5.06145
_cell_length_b       10.3448
_cell_length_c       10.0595
_cell_angle_alpha    91.0686
_cell_angle_beta     87.6041
_cell_angle_gamma    88.6796

_symmetry_space_group_name_H-M    "P 1"
_symmetry_int_tables_number       1

loop_
  _symmetry_equiv_pos_as_xyz
  'x, y, z'

loop_
  _atom_site_label
  _atom_site_occupancy
  _atom_site_fract_x
  _atom_site_fract_y
  _atom_site_fract_z
  _atom_site_thermal_displace_type
  _atom_site_B_iso_or_equiv
  _atom_site_type_symbol
  Hf1      1.0000 0.22155  0.95835  0.12097  Biso   1.000  Hf
  Hf2      1.0000 0.29573  0.26403  0.38815  Biso   1.000  Hf
  Hf3      1.0000 0.74590  0.28137  0.13298  Biso   1.000  Hf
  Hf4      1.0000 0.75341  0.99841  0.35907  Biso   1.000  Hf
  Hf5      1.0000 0.95135  0.14236  0.01514  Biso   1.000  Hf
  Hf6      1.0000 0.06488  0.08511  0.27083  Biso   1.000  Hf
  Hf7      1.0000 0.04981  0.33769  0.24732  Biso   1.000  Hf
  Hf8      1.0000 0.96532  0.39892  0.99470  Biso   1.000  Hf
  Hf9      1.0000 0.55788  0.15540  0.25926  Biso   1.000  Hf
  Hf10     1.0000 0.43681  0.08484  0.99942  Biso   1.000  Hf
  Hf11     1.0000 0.42949  0.32939  0.02503  Biso   1.000  Hf
  Hf12     1.0000 0.51637  0.41473  0.26324  Biso   1.000  Hf
  Hf13     1.0000 0.25269  0.01618  0.61987  Biso   1.000  Hf
  Hf14     1.0000 0.20468  0.24249  0.88561  Biso   1.000  Hf
  Hf15     1.0000 0.74869  0.24307  0.64454  Biso   1.000  Hf
  Hf16     1.0000 0.71517  0.99675  0.88004  Biso   1.000  Hf
  Hf17     1.0000 0.06288  0.17459  0.52838  Biso   1.000  Hf
  Hf18     1.0000 0.97365  0.10540  0.76285  Biso   1.000  Hf
  Hf19     1.0000 0.02230  0.36240  0.74220  Biso   1.000  Hf
  Hf20     1.0000 0.07610  0.42712  0.48529  Biso   1.000  Hf
  Hf21     1.0000 0.47565  0.14639  0.75455  Biso   1.000  Hf
  Hf22     1.0000 0.55071  0.11014  0.50820  Biso   1.000  Hf
  Hf23     1.0000 0.56638  0.36345  0.51151  Biso   1.000  Hf
  Hf24     1.0000 0.52304  0.39470  0.76494  Biso   1.000  Hf
  Hf25     1.0000 0.25005  0.49888  0.12481  Biso   1.000  Hf
  Hf26     1.0000 0.25461  0.76547  0.38103  Biso   1.000  Hf
  Hf27     1.0000 0.72973  0.73037  0.11781  Biso   1.000  Hf
  Hf28     1.0000 0.77102  0.50720  0.38992  Biso   1.000  Hf
  Hf29     1.0000 0.02573  0.64199  0.98369  Biso   1.000  Hf
  Hf30     1.0000 0.91931  0.58049  0.22078  Biso   1.000  Hf
  Hf31     1.0000 0.98105  0.83483  0.24725  Biso   1.000  Hf
  Hf32     1.0000 0.95896  0.88386  0.99115  Biso   1.000  Hf
  Hf33     1.0000 0.41633  0.65643  0.23139  Biso   1.000  Hf
  Hf34     1.0000 0.53776  0.57749  0.00435  Biso   1.000  Hf
  Hf35     1.0000 0.47615  0.83090  0.99123  Biso   1.000  Hf
  Hf36     1.0000 0.50312  0.89316  0.24503  Biso   1.000  Hf
  Hf37     1.0000 0.29843  0.49339  0.63389  Biso   1.000  Hf
  Hf38     1.0000 0.22742  0.75769  0.85526  Biso   1.000  Hf
  Hf39     1.0000 0.74204  0.76433  0.61895  Biso   1.000  Hf
  Hf40     1.0000 0.78931  0.51167  0.85837  Biso   1.000  Hf
  Hf41     1.0000 0.95402  0.67171  0.47036  Biso   1.000  Hf
  Hf42     1.0000 0.02176  0.61638  0.72726  Biso   1.000  Hf
  Hf43     1.0000 0.98601  0.86182  0.73992  Biso   1.000  Hf
  Hf44     1.0000 0.00638  0.91766  0.49553  Biso   1.000  Hf
  Hf45     1.0000 0.52180  0.64767  0.74844  Biso   1.000  Hf
  Hf46     1.0000 0.47679  0.61610  0.49615  Biso   1.000  Hf
  Hf47     1.0000 0.50095  0.86743  0.49792  Biso   1.000  Hf
  Hf48     1.0000 0.48234  0.90036  0.74737  Biso   1.000  Hf
  Cr1      1.0000 0.24953  0.19209  0.13860  Biso   1.000  Cr
