data_image0
_cell_length_a       10.1034
_cell_length_b       10.2501
_cell_length_c       5.25931
_cell_angle_alpha    89.4027
_cell_angle_beta     90.8742
_cell_angle_gamma    89.8294

_symmetry_space_group_name_H-M    "P 1"
_symmetry_int_tables_number       1

loop_
  _symmetry_equiv_pos_as_xyz
  'x, y, z'

loop_
  _atom_site_label
  _atom_site_occupancy
  _atom_site_fract_x
  _atom_site_fract_y
  _atom_site_fract_z
  _atom_site_thermal_displace_type
  _atom_site_B_iso_or_equiv
  _atom_site_type_symbol
  Hf1      1.0000 0.14076  0.01904  0.34093  Biso   1.000  Hf
  Hf2      1.0000 0.13985  0.22698  0.83939  Biso   1.000  Hf
  Hf3      1.0000 0.35553  0.26909  0.35310  Biso   1.000  Hf
  Hf4      1.0000 0.36150  0.47916  0.84465  Biso   1.000  Hf
  Hf5      1.0000 0.63923  0.01875  0.14419  Biso   1.000  Hf
  Hf6      1.0000 0.63825  0.22789  0.69884  Biso   1.000  Hf
  Hf7      1.0000 0.87238  0.27005  0.15563  Biso   1.000  Hf
  Hf8      1.0000 0.86522  0.48176  0.65824  Biso   1.000  Hf
  O1       1.0000 0.03717  0.16029  0.15491  Biso   1.000  O
  O2       1.0000 0.03128  0.09004  0.64902  Biso   1.000  O
  O3       1.0000 0.47397  0.40870  0.16970  Biso   1.000  O
  O4       1.0000 0.46418  0.33309  0.67697  Biso   1.000  O
  O5       1.0000 0.27268  0.12282  0.59272  Biso   1.000  O
  O6       1.0000 0.27595  0.12400  0.08781  Biso   1.000  O
  O7       1.0000 0.22248  0.37443  0.59407  Biso   1.000  O
  O8       1.0000 0.22530  0.37643  0.09095  Biso   1.000  O
  O9       1.0000 0.51080  0.14359  0.34529  Biso   1.000  O
  O10      1.0000 0.53189  0.07412  0.82415  Biso   1.000  O
  O11      1.0000 0.97004  0.41494  0.33913  Biso   1.000  O
  O12      1.0000 0.97019  0.33855  0.83508  Biso   1.000  O
  O13      1.0000 0.79301  0.11570  0.89771  Biso   1.000  O
  O14      1.0000 0.75678  0.14129  0.39478  Biso   1.000  O
  O15      1.0000 0.72329  0.37226  0.94342  Biso   1.000  O
  O16      1.0000 0.72476  0.38564  0.43406  Biso   1.000  O
  Hf9      1.0000 0.13962  0.52151  0.34240  Biso   1.000  Hf
  Hf10     1.0000 0.13894  0.72866  0.84269  Biso   1.000  Hf
  Hf11     1.0000 0.36191  0.77024  0.34532  Biso   1.000  Hf
  Hf12     1.0000 0.36099  0.97488  0.84496  Biso   1.000  Hf
  Hf13     1.0000 0.64293  0.53097  0.15854  Biso   1.000  Hf
  Hf14     1.0000 0.63988  0.73058  0.65455  Biso   1.000  Hf
  Hf15     1.0000 0.86366  0.77407  0.15393  Biso   1.000  Hf
  Hf16     1.0000 0.86316  0.97886  0.64976  Biso   1.000  Hf
  O17      1.0000 0.03335  0.66403  0.15914  Biso   1.000  O
  O18      1.0000 0.03340  0.58868  0.65856  Biso   1.000  O
  O19      1.0000 0.46758  0.90720  0.15905  Biso   1.000  O
  O20      1.0000 0.46740  0.83389  0.66239  Biso   1.000  O
  O21      1.0000 0.27579  0.62245  0.59247  Biso   1.000  O
  O22      1.0000 0.27728  0.62414  0.09177  Biso   1.000  O
  O23      1.0000 0.22432  0.87208  0.59136  Biso   1.000  O
  O24      1.0000 0.22288  0.87388  0.09143  Biso   1.000  O
  O25      1.0000 0.53104  0.66223  0.34271  Biso   1.000  O
  O26      1.0000 0.53295  0.58716  0.83916  Biso   1.000  O
  O27      1.0000 0.96872  0.91598  0.32782  Biso   1.000  O
  O28      1.0000 0.96911  0.83845  0.83097  Biso   1.000  O
  O29      1.0000 0.77909  0.62431  0.90476  Biso   1.000  O
  O30      1.0000 0.77971  0.63284  0.40719  Biso   1.000  O
  O31      1.0000 0.72545  0.87160  0.90613  Biso   1.000  O
  O32      1.0000 0.72691  0.87825  0.40762  Biso   1.000  O
  Cr1      1.0000 0.61630  0.27477  0.22111  Biso   1.000  Cr
