data_image0
_cell_length_a       10.1125
_cell_length_b       10.3753
_cell_length_c       10.1125
_cell_angle_alpha    90.0023
_cell_angle_beta     90.0007
_cell_angle_gamma    90.0023

_symmetry_space_group_name_H-M    "P 1"
_symmetry_int_tables_number       1

loop_
  _symmetry_equiv_pos_as_xyz
  'x, y, z'

loop_
  _atom_site_label
  _atom_site_occupancy
  _atom_site_fract_x
  _atom_site_fract_y
  _atom_site_fract_z
  _atom_site_thermal_displace_type
  _atom_site_B_iso_or_equiv
  _atom_site_type_symbol
  Hf1      1.0000 0.12493  0.96000  0.12494  Biso   1.000  Hf
  Hf2      1.0000 0.12488  0.25003  0.40015  Biso   1.000  Hf
  Hf3      1.0000 0.40016  0.25003  0.12489  Biso   1.000  Hf
  Hf4      1.0000 0.37667  0.01381  0.37668  Biso   1.000  Hf
  Hf5      1.0000 0.95995  0.17430  0.95995  Biso   1.000  Hf
  Hf6      1.0000 0.00386  0.07327  0.24614  Biso   1.000  Hf
  Hf7      1.0000 0.95995  0.32583  0.28985  Biso   1.000  Hf
  Hf8      1.0000 0.00376  0.42684  0.00377  Biso   1.000  Hf
  Hf9      1.0000 0.28985  0.17427  0.28986  Biso   1.000  Hf
  Hf10     1.0000 0.24615  0.07326  0.00386  Biso   1.000  Hf
  Hf11     1.0000 0.28986  0.32583  0.95995  Biso   1.000  Hf
  Hf12     1.0000 0.24603  0.42685  0.24603  Biso   1.000  Hf
  Hf13     1.0000 0.12492  0.99021  0.62493  Biso   1.000  Hf
  Hf14     1.0000 0.12490  0.25007  0.84963  Biso   1.000  Hf
  Hf15     1.0000 0.37644  0.25006  0.62490  Biso   1.000  Hf
  Hf16     1.0000 0.37652  0.00259  0.87333  Biso   1.000  Hf
  Hf17     1.0000 0.99225  0.14321  0.49985  Biso   1.000  Hf
  Hf18     1.0000 0.00424  0.10148  0.74021  Biso   1.000  Hf
  Hf19     1.0000 0.99225  0.35691  0.74998  Biso   1.000  Hf
  Hf20     1.0000 0.00422  0.39862  0.50961  Biso   1.000  Hf
  Hf21     1.0000 0.25756  0.14322  0.75000  Biso   1.000  Hf
  Hf22     1.0000 0.24558  0.10147  0.50962  Biso   1.000  Hf
  Hf23     1.0000 0.25755  0.35688  0.49981  Biso   1.000  Hf
  Hf24     1.0000 0.24559  0.39864  0.74019  Biso   1.000  Hf
  Hf25     1.0000 0.12490  0.54012  0.12490  Biso   1.000  Hf
  Hf26     1.0000 0.12491  0.75005  0.38543  Biso   1.000  Hf
  Hf27     1.0000 0.38543  0.75005  0.12491  Biso   1.000  Hf
  Hf28     1.0000 0.37648  0.49751  0.37648  Biso   1.000  Hf
  Hf29     1.0000 0.01012  0.66937  0.01012  Biso   1.000  Hf
  Hf30     1.0000 0.99046  0.59338  0.25933  Biso   1.000  Hf
  Hf31     1.0000 0.01015  0.83074  0.23968  Biso   1.000  Hf
  Hf32     1.0000 0.99048  0.90677  0.99050  Biso   1.000  Hf
  Hf33     1.0000 0.23966  0.66936  0.23966  Biso   1.000  Hf
  Hf34     1.0000 0.25931  0.59337  0.99045  Biso   1.000  Hf
  Hf35     1.0000 0.23966  0.83073  0.01017  Biso   1.000  Hf
  Hf36     1.0000 0.25936  0.90671  0.25937  Biso   1.000  Hf
  Hf37     1.0000 0.12491  0.50989  0.62490  Biso   1.000  Hf
  Hf38     1.0000 0.12492  0.75005  0.86439  Biso   1.000  Hf
  Hf39     1.0000 0.37837  0.75005  0.62490  Biso   1.000  Hf
  Hf40     1.0000 0.37668  0.48631  0.87315  Biso   1.000  Hf
  Hf41     1.0000 0.00077  0.64896  0.50938  Biso   1.000  Hf
  Hf42     1.0000 0.00325  0.60366  0.75903  Biso   1.000  Hf
  Hf43     1.0000 0.00077  0.85114  0.74045  Biso   1.000  Hf
  Hf44     1.0000 0.00324  0.89644  0.49080  Biso   1.000  Hf
  Hf45     1.0000 0.24904  0.64897  0.74042  Biso   1.000  Hf
  Hf46     1.0000 0.24657  0.60365  0.49076  Biso   1.000  Hf
  Hf47     1.0000 0.24903  0.85114  0.50941  Biso   1.000  Hf
  Hf48     1.0000 0.24658  0.89645  0.75907  Biso   1.000  Hf
  Hf49     1.0000 0.62493  0.99021  0.12491  Biso   1.000  Hf
  Hf50     1.0000 0.62490  0.25005  0.37644  Biso   1.000  Hf
  Hf51     1.0000 0.84964  0.25007  0.12489  Biso   1.000  Hf
  Hf52     1.0000 0.87333  0.00259  0.37651  Biso   1.000  Hf
  Hf53     1.0000 0.49986  0.14321  0.99225  Biso   1.000  Hf
  Hf54     1.0000 0.50962  0.10147  0.24558  Biso   1.000  Hf
  Hf55     1.0000 0.49982  0.35688  0.25755  Biso   1.000  Hf
  Hf56     1.0000 0.50961  0.39862  0.00423  Biso   1.000  Hf
  Hf57     1.0000 0.75001  0.14322  0.25756  Biso   1.000  Hf
  Hf58     1.0000 0.74022  0.10148  0.00423  Biso   1.000  Hf
  Hf59     1.0000 0.74998  0.35691  0.99225  Biso   1.000  Hf
  Hf60     1.0000 0.74019  0.39864  0.24558  Biso   1.000  Hf
  Hf61     1.0000 0.62492  0.99869  0.62491  Biso   1.000  Hf
  Hf62     1.0000 0.62491  0.25006  0.87335  Biso   1.000  Hf
  Hf63     1.0000 0.87335  0.25006  0.62490  Biso   1.000  Hf
  Hf64     1.0000 0.87316  0.01380  0.87315  Biso   1.000  Hf
  Hf65     1.0000 0.49843  0.15158  0.49842  Biso   1.000  Hf
  Hf66     1.0000 0.50283  0.10067  0.74698  Biso   1.000  Hf
  Hf67     1.0000 0.49843  0.34854  0.75138  Biso   1.000  Hf
  Hf68     1.0000 0.50281  0.39944  0.50282  Biso   1.000  Hf
  Hf69     1.0000 0.75139  0.15157  0.75139  Biso   1.000  Hf
  Hf70     1.0000 0.74698  0.10066  0.50282  Biso   1.000  Hf
  Hf71     1.0000 0.75138  0.34854  0.49843  Biso   1.000  Hf
  Hf72     1.0000 0.74700  0.39945  0.74699  Biso   1.000  Hf
  Hf73     1.0000 0.62490  0.50989  0.12491  Biso   1.000  Hf
  Hf74     1.0000 0.62490  0.75005  0.37836  Biso   1.000  Hf
  Hf75     1.0000 0.86438  0.75006  0.12491  Biso   1.000  Hf
  Hf76     1.0000 0.87315  0.48631  0.37667  Biso   1.000  Hf
  Hf77     1.0000 0.50936  0.64895  0.00076  Biso   1.000  Hf
  Hf78     1.0000 0.49076  0.60365  0.24657  Biso   1.000  Hf
  Hf79     1.0000 0.50940  0.85114  0.24904  Biso   1.000  Hf
  Hf80     1.0000 0.49078  0.89644  0.00324  Biso   1.000  Hf
  Hf81     1.0000 0.74042  0.64897  0.24904  Biso   1.000  Hf
  Hf82     1.0000 0.75902  0.60366  0.00324  Biso   1.000  Hf
  Hf83     1.0000 0.74043  0.85114  0.00077  Biso   1.000  Hf
  Hf84     1.0000 0.75906  0.89646  0.24657  Biso   1.000  Hf
  Hf85     1.0000 0.62491  0.50141  0.62490  Biso   1.000  Hf
  Hf86     1.0000 0.62490  0.75005  0.87146  Biso   1.000  Hf
  Hf87     1.0000 0.87146  0.75006  0.62491  Biso   1.000  Hf
  Hf88     1.0000 0.87333  0.49754  0.87333  Biso   1.000  Hf
  Hf89     1.0000 0.49820  0.64955  0.49820  Biso   1.000  Hf
  Hf90     1.0000 0.50120  0.59947  0.74862  Biso   1.000  Hf
  Hf91     1.0000 0.49821  0.85055  0.75161  Biso   1.000  Hf
  Hf92     1.0000 0.50119  0.90063  0.50119  Biso   1.000  Hf
  Hf93     1.0000 0.75162  0.64956  0.75161  Biso   1.000  Hf
  Hf94     1.0000 0.74862  0.59947  0.50119  Biso   1.000  Hf
  Hf95     1.0000 0.75161  0.85055  0.49820  Biso   1.000  Hf
  Hf96     1.0000 0.74863  0.90064  0.74862  Biso   1.000  Hf
  Cs1      1.0000 0.12490  0.25004  0.12490  Biso   1.000  Cs
