data_image0
_cell_length_a       10.1425
_cell_length_b       10.3921
_cell_length_c       5.31097
_cell_angle_alpha    89.084
_cell_angle_beta     90.426
_cell_angle_gamma    90.572

_symmetry_space_group_name_H-M    "P 1"
_symmetry_int_tables_number       1

loop_
  _symmetry_equiv_pos_as_xyz
  'x, y, z'

loop_
  _atom_site_label
  _atom_site_occupancy
  _atom_site_fract_x
  _atom_site_fract_y
  _atom_site_fract_z
  _atom_site_thermal_displace_type
  _atom_site_B_iso_or_equiv
  _atom_site_type_symbol
  Hf1      1.0000 0.14240  0.01998  0.34637  Biso   1.000  Hf
  Hf2      1.0000 0.14148  0.22565  0.84827  Biso   1.000  Hf
  Hf3      1.0000 0.34406  0.27597  0.36692  Biso   1.000  Hf
  Hf4      1.0000 0.35736  0.48675  0.85163  Biso   1.000  Hf
  Hf5      1.0000 0.64286  0.00348  0.14447  Biso   1.000  Hf
  Hf6      1.0000 0.63759  0.20119  0.59512  Biso   1.000  Hf
  Hf7      1.0000 0.87872  0.27537  0.16349  Biso   1.000  Hf
  Hf8      1.0000 0.86662  0.48007  0.66951  Biso   1.000  Hf
  O1       1.0000 0.03722  0.15870  0.16049  Biso   1.000  O
  O2       1.0000 0.03362  0.08740  0.65852  Biso   1.000  O
  O3       1.0000 0.43600  0.45474  0.21468  Biso   1.000  O
  O4       1.0000 0.46486  0.33087  0.65251  Biso   1.000  O
  O5       1.0000 0.27192  0.12453  0.59958  Biso   1.000  O
  O6       1.0000 0.27984  0.12471  0.09477  Biso   1.000  O
  O7       1.0000 0.22039  0.37645  0.60473  Biso   1.000  O
  O8       1.0000 0.21797  0.37643  0.09647  Biso   1.000  O
  O9       1.0000 0.51639  0.10412  0.37989  Biso   1.000  O
  O10      1.0000 0.53262  0.07150  0.84107  Biso   1.000  O
  O11      1.0000 0.97551  0.41016  0.35622  Biso   1.000  O
  O12      1.0000 0.97635  0.33276  0.83836  Biso   1.000  O
  O13      1.0000 0.77453  0.12550  0.87719  Biso   1.000  O
  O14      1.0000 0.78213  0.11723  0.37555  Biso   1.000  O
  O15      1.0000 0.76627  0.40837  0.97051  Biso   1.000  O
  O16      1.0000 0.72855  0.37103  0.44983  Biso   1.000  O
  Hf9      1.0000 0.14135  0.52306  0.34622  Biso   1.000  Hf
  Hf10     1.0000 0.13742  0.73080  0.84305  Biso   1.000  Hf
  Hf11     1.0000 0.36152  0.77136  0.34632  Biso   1.000  Hf
  Hf12     1.0000 0.36133  0.97376  0.84580  Biso   1.000  Hf
  Hf13     1.0000 0.64006  0.53836  0.17227  Biso   1.000  Hf
  Hf14     1.0000 0.63955  0.73279  0.66063  Biso   1.000  Hf
  Hf15     1.0000 0.86767  0.77134  0.15968  Biso   1.000  Hf
  Hf16     1.0000 0.86731  0.97967  0.65331  Biso   1.000  Hf
  O17      1.0000 0.03133  0.66042  0.16177  Biso   1.000  O
  O18      1.0000 0.03410  0.59057  0.66188  Biso   1.000  O
  O19      1.0000 0.47224  0.89430  0.13967  Biso   1.000  O
  O20      1.0000 0.46740  0.83489  0.65887  Biso   1.000  O
  O21      1.0000 0.27468  0.62594  0.59003  Biso   1.000  O
  O22      1.0000 0.27094  0.63186  0.08274  Biso   1.000  O
  O23      1.0000 0.22649  0.87394  0.59294  Biso   1.000  O
  O24      1.0000 0.22426  0.87710  0.09611  Biso   1.000  O
  O25      1.0000 0.53701  0.67362  0.34340  Biso   1.000  O
  O26      1.0000 0.53540  0.58257  0.84173  Biso   1.000  O
  O27      1.0000 0.97348  0.91177  0.34159  Biso   1.000  O
  O28      1.0000 0.97157  0.84006  0.84444  Biso   1.000  O
  O29      1.0000 0.77186  0.63936  0.91617  Biso   1.000  O
  O30      1.0000 0.77818  0.62493  0.41889  Biso   1.000  O
  O31      1.0000 0.73059  0.87546  0.90474  Biso   1.000  O
  O32      1.0000 0.73137  0.87019  0.41011  Biso   1.000  O
  Cs1      1.0000 0.56646  0.27925  0.06203  Biso   1.000  Cs
