data_image0
_cell_length_a       10.0132
_cell_length_b       5.21336
_cell_length_c       10.0967
_cell_angle_alpha    89.823
_cell_angle_beta     89.6618
_cell_angle_gamma    90.2374

_symmetry_space_group_name_H-M    "P 1"
_symmetry_int_tables_number       1

loop_
  _symmetry_equiv_pos_as_xyz
  'x, y, z'

loop_
  _atom_site_label
  _atom_site_occupancy
  _atom_site_fract_x
  _atom_site_fract_y
  _atom_site_fract_z
  _atom_site_thermal_displace_type
  _atom_site_B_iso_or_equiv
  _atom_site_type_symbol
  Cs1      1.0000 0.10989  0.01368  0.11712  Biso   1.000  Cs
  Hf1      1.0000 0.13174  0.04214  0.63588  Biso   1.000  Hf
  Hf2      1.0000 0.63565  0.02612  0.12740  Biso   1.000  Hf
  Hf3      1.0000 0.63104  0.03467  0.62581  Biso   1.000  Hf
  Hf4      1.0000 0.13726  0.46873  0.38559  Biso   1.000  Hf
  Hf5      1.0000 0.13602  0.47059  0.86829  Biso   1.000  Hf
  Hf6      1.0000 0.62970  0.46668  0.37703  Biso   1.000  Hf
  Hf7      1.0000 0.63614  0.45983  0.87553  Biso   1.000  Hf
  Hf8      1.0000 0.36855  0.52376  0.13424  Biso   1.000  Hf
  Hf9      1.0000 0.36646  0.53476  0.62806  Biso   1.000  Hf
  Hf10     1.0000 0.85579  0.52372  0.12597  Biso   1.000  Hf
  Hf11     1.0000 0.86585  0.53348  0.61969  Biso   1.000  Hf
  Hf12     1.0000 0.36238  0.96733  0.37946  Biso   1.000  Hf
  Hf13     1.0000 0.37086  0.96011  0.87734  Biso   1.000  Hf
  Hf14     1.0000 0.86202  0.97583  0.38663  Biso   1.000  Hf
  Hf15     1.0000 0.86328  0.95700  0.86484  Biso   1.000  Hf
  Hf16     1.0000 0.02756  0.42678  0.20832  Biso   1.000  Hf
  Hf17     1.0000 0.04678  0.40210  0.67219  Biso   1.000  Hf
  Hf18     1.0000 0.54383  0.36738  0.19219  Biso   1.000  Hf
  Hf19     1.0000 0.53749  0.36807  0.69594  Biso   1.000  Hf
  Hf20     1.0000 0.03613  0.12980  0.44343  Biso   1.000  Hf
  Hf21     1.0000 0.04166  0.12658  0.87016  Biso   1.000  Hf
  Hf22     1.0000 0.53551  0.13234  0.44704  Biso   1.000  Hf
  Hf23     1.0000 0.53870  0.12763  0.94747  Biso   1.000  Hf
  Hf24     1.0000 0.46977  0.86159  0.19876  Biso   1.000  Hf
  Hf25     1.0000 0.46565  0.86642  0.69844  Biso   1.000  Hf
  Hf26     1.0000 0.93063  0.89329  0.19129  Biso   1.000  Hf
  Hf27     1.0000 0.95240  0.87527  0.67613  Biso   1.000  Hf
  Hf28     1.0000 0.46484  0.63219  0.45078  Biso   1.000  Hf
  Hf29     1.0000 0.46969  0.62562  0.94463  Biso   1.000  Hf
  Hf30     1.0000 0.96029  0.63802  0.43892  Biso   1.000  Hf
  Hf31     1.0000 0.96950  0.63594  0.94794  Biso   1.000  Hf
  Hf32     1.0000 0.28499  0.25117  0.26325  Biso   1.000  Hf
  Hf33     1.0000 0.27928  0.24606  0.75508  Biso   1.000  Hf
  Hf34     1.0000 0.76700  0.23548  0.25317  Biso   1.000  Hf
  Hf35     1.0000 0.77071  0.23428  0.74704  Biso   1.000  Hf
  Hf36     1.0000 0.27007  0.26073  0.50906  Biso   1.000  Hf
  Hf37     1.0000 0.26469  0.24481  0.00313  Biso   1.000  Hf
  Hf38     1.0000 0.76707  0.26805  0.49956  Biso   1.000  Hf
  Hf39     1.0000 0.77909  0.25088  0.99738  Biso   1.000  Hf
  Hf40     1.0000 0.22727  0.76947  0.50805  Biso   1.000  Hf
  Hf41     1.0000 0.24725  0.72946  0.99601  Biso   1.000  Hf
  Hf42     1.0000 0.72581  0.76435  0.50162  Biso   1.000  Hf
  Hf43     1.0000 0.72802  0.75288  0.99983  Biso   1.000  Hf
  Hf44     1.0000 0.24656  0.71321  0.26514  Biso   1.000  Hf
  Hf45     1.0000 0.22994  0.74572  0.75163  Biso   1.000  Hf
  Hf46     1.0000 0.73087  0.73683  0.25266  Biso   1.000  Hf
  Hf47     1.0000 0.72981  0.73096  0.74982  Biso   1.000  Hf
