data_image0
_cell_length_a       10.0031
_cell_length_b       10.455
_cell_length_c       10.1099
_cell_angle_alpha    89.5737
_cell_angle_beta     90.5538
_cell_angle_gamma    90.0561

_symmetry_space_group_name_H-M    "P 1"
_symmetry_int_tables_number       1

loop_
  _symmetry_equiv_pos_as_xyz
  'x, y, z'

loop_
  _atom_site_label
  _atom_site_occupancy
  _atom_site_fract_x
  _atom_site_fract_y
  _atom_site_fract_z
  _atom_site_thermal_displace_type
  _atom_site_B_iso_or_equiv
  _atom_site_type_symbol
  Hf1      1.0000 0.13074  0.01218  0.12815  Biso   1.000  Hf
  Hf2      1.0000 0.12910  0.22880  0.38320  Biso   1.000  Hf
  Hf3      1.0000 0.37461  0.27059  0.12217  Biso   1.000  Hf
  Hf4      1.0000 0.36576  0.47866  0.37972  Biso   1.000  Hf
  Hf5      1.0000 0.01137  0.16902  0.22037  Biso   1.000  Hf
  Hf6      1.0000 0.04512  0.04850  0.43241  Biso   1.000  Hf
  Hf7      1.0000 0.47023  0.43315  0.20720  Biso   1.000  Hf
  Hf8      1.0000 0.46168  0.31426  0.44959  Biso   1.000  Hf
  Hf9      1.0000 0.26493  0.11935  0.24042  Biso   1.000  Hf
  Hf10     1.0000 0.27580  0.12873  0.49032  Biso   1.000  Hf
  Hf11     1.0000 0.22727  0.37978  0.50441  Biso   1.000  Hf
  Hf12     1.0000 0.22775  0.36597  0.25484  Biso   1.000  Hf
  Hf13     1.0000 0.13285  0.00000  0.61316  Biso   1.000  Hf
  Hf14     1.0000 0.12806  0.19559  0.81845  Biso   1.000  Hf
  Hf15     1.0000 0.36795  0.26239  0.62525  Biso   1.000  Hf
  Hf16     1.0000 0.37868  0.48589  0.86836  Biso   1.000  Hf
  Hf17     1.0000 0.05210  0.18138  0.63385  Biso   1.000  Hf
  Hf18     1.0000 0.03129  0.06275  0.94848  Biso   1.000  Hf
  Hf19     1.0000 0.46229  0.43055  0.68910  Biso   1.000  Hf
  Hf20     1.0000 0.48260  0.31839  0.94821  Biso   1.000  Hf
  Hf21     1.0000 0.28278  0.10297  0.72811  Biso   1.000  Hf
  Hf22     1.0000 0.27346  0.14329  0.98266  Biso   1.000  Hf
  Hf23     1.0000 0.27794  0.42378  0.02265  Biso   1.000  Hf
  Hf24     1.0000 0.23152  0.35986  0.75612  Biso   1.000  Hf
  Hf25     1.0000 0.14234  0.53705  0.13774  Biso   1.000  Hf
  Hf26     1.0000 0.13729  0.73525  0.38152  Biso   1.000  Hf
  Hf27     1.0000 0.36854  0.77177  0.12805  Biso   1.000  Hf
  Hf28     1.0000 0.36622  0.98597  0.37463  Biso   1.000  Hf
  Hf29     1.0000 0.03591  0.68858  0.20198  Biso   1.000  Hf
  Hf30     1.0000 0.04379  0.56764  0.44033  Biso   1.000  Hf
  Hf31     1.0000 0.46455  0.93679  0.19914  Biso   1.000  Hf
  Hf32     1.0000 0.46811  0.81766  0.44856  Biso   1.000  Hf
  Hf33     1.0000 0.27832  0.62349  0.25819  Biso   1.000  Hf
  Hf34     1.0000 0.27178  0.63046  0.50657  Biso   1.000  Hf
  Hf35     1.0000 0.23872  0.87640  0.49789  Biso   1.000  Hf
  Hf36     1.0000 0.22909  0.86825  0.25011  Biso   1.000  Hf
  Hf37     1.0000 0.13664  0.51635  0.62557  Biso   1.000  Hf
  Hf38     1.0000 0.13077  0.73801  0.87436  Biso   1.000  Hf
  Hf39     1.0000 0.37043  0.76468  0.62962  Biso   1.000  Hf
  Hf40     1.0000 0.37011  0.98591  0.87645  Biso   1.000  Hf
  Hf41     1.0000 0.03676  0.68398  0.69702  Biso   1.000  Hf
  Hf42     1.0000 0.03384  0.55787  0.94535  Biso   1.000  Hf
  Hf43     1.0000 0.47247  0.92673  0.70157  Biso   1.000  Hf
  Hf44     1.0000 0.46696  0.81924  0.95149  Biso   1.000  Hf
  Hf45     1.0000 0.26882  0.61497  0.75637  Biso   1.000  Hf
  Hf46     1.0000 0.25634  0.65539  0.00940  Biso   1.000  Hf
  Hf47     1.0000 0.23336  0.89481  0.00070  Biso   1.000  Hf
  Hf48     1.0000 0.23555  0.86123  0.75119  Biso   1.000  Hf
  Hf49     1.0000 0.63136  0.01456  0.12848  Biso   1.000  Hf
  Hf50     1.0000 0.62917  0.23004  0.39064  Biso   1.000  Hf
  Hf51     1.0000 0.83749  0.26094  0.16147  Biso   1.000  Hf
  Hf52     1.0000 0.86963  0.48437  0.38708  Biso   1.000  Hf
  Hf53     1.0000 0.53729  0.18474  0.20059  Biso   1.000  Hf
  Hf54     1.0000 0.53445  0.06449  0.45254  Biso   1.000  Hf
  Hf55     1.0000 0.95887  0.43684  0.20812  Biso   1.000  Hf
  Hf56     1.0000 0.95538  0.31219  0.43816  Biso   1.000  Hf
  Hf57     1.0000 0.75595  0.11112  0.26458  Biso   1.000  Hf
  Hf58     1.0000 0.77367  0.13005  0.50751  Biso   1.000  Hf
  Hf59     1.0000 0.72610  0.37887  0.50762  Biso   1.000  Hf
  Hf60     1.0000 0.71736  0.37105  0.26572  Biso   1.000  Hf
  Hf61     1.0000 0.63718  0.01440  0.63048  Biso   1.000  Hf
  Hf62     1.0000 0.64474  0.23250  0.87804  Biso   1.000  Hf
  Hf63     1.0000 0.86730  0.27141  0.63017  Biso   1.000  Hf
  Hf64     1.0000 0.86485  0.48538  0.85992  Biso   1.000  Hf
  Hf65     1.0000 0.53975  0.18136  0.69883  Biso   1.000  Hf
  Hf66     1.0000 0.54015  0.06697  0.94900  Biso   1.000  Hf
  Hf67     1.0000 0.94892  0.45599  0.65829  Biso   1.000  Hf
  Hf68     1.0000 0.94141  0.29439  0.82466  Biso   1.000  Hf
  Hf69     1.0000 0.77270  0.11342  0.75528  Biso   1.000  Hf
  Hf70     1.0000 0.77458  0.13460  0.01400  Biso   1.000  Hf
  Hf71     1.0000 0.75486  0.38183  0.00885  Biso   1.000  Hf
  Hf72     1.0000 0.71555  0.37665  0.75371  Biso   1.000  Hf
  Hf73     1.0000 0.63543  0.51778  0.13029  Biso   1.000  Hf
  Hf74     1.0000 0.63325  0.73306  0.37814  Biso   1.000  Hf
  Hf75     1.0000 0.86252  0.76347  0.12956  Biso   1.000  Hf
  Hf76     1.0000 0.86812  0.98037  0.37782  Biso   1.000  Hf
  Hf77     1.0000 0.53818  0.68472  0.19598  Biso   1.000  Hf
  Hf78     1.0000 0.53351  0.56730  0.44803  Biso   1.000  Hf
  Hf79     1.0000 0.96136  0.92961  0.19572  Biso   1.000  Hf
  Hf80     1.0000 0.96938  0.81524  0.45502  Biso   1.000  Hf
  Hf81     1.0000 0.77065  0.61604  0.25436  Biso   1.000  Hf
  Hf82     1.0000 0.76888  0.63393  0.50361  Biso   1.000  Hf
  Hf83     1.0000 0.73299  0.88190  0.50340  Biso   1.000  Hf
  Hf84     1.0000 0.73038  0.86491  0.25326  Biso   1.000  Hf
  Hf85     1.0000 0.63255  0.51668  0.62565  Biso   1.000  Hf
  Hf86     1.0000 0.63371  0.73500  0.88072  Biso   1.000  Hf
  Hf87     1.0000 0.86605  0.76654  0.62977  Biso   1.000  Hf
  Hf88     1.0000 0.86364  0.98000  0.88182  Biso   1.000  Hf
  Hf89     1.0000 0.53227  0.67652  0.70595  Biso   1.000  Hf
  Hf90     1.0000 0.53620  0.56929  0.95360  Biso   1.000  Hf
  Hf91     1.0000 0.96649  0.93211  0.70344  Biso   1.000  Hf
  Hf92     1.0000 0.96402  0.81283  0.95108  Biso   1.000  Hf
  Hf93     1.0000 0.76834  0.62091  0.75176  Biso   1.000  Hf
  Hf94     1.0000 0.76897  0.63385  0.00127  Biso   1.000  Hf
  Hf95     1.0000 0.72916  0.88235  0.00488  Biso   1.000  Hf
  Hf96     1.0000 0.73195  0.86474  0.75432  Biso   1.000  Hf
  Cs1      1.0000 0.06685  0.31043  0.03271  Biso   1.000  Cs
