data_image0
_cell_length_a       10.2406
_cell_length_b       10.5262
_cell_length_c       5.10589
_cell_angle_alpha    94.5103
_cell_angle_beta     88.4474
_cell_angle_gamma    92.7326

_symmetry_space_group_name_H-M    "P 1"
_symmetry_int_tables_number       1

loop_
  _symmetry_equiv_pos_as_xyz
  'x, y, z'

loop_
  _atom_site_label
  _atom_site_occupancy
  _atom_site_fract_x
  _atom_site_fract_y
  _atom_site_fract_z
  _atom_site_thermal_displace_type
  _atom_site_B_iso_or_equiv
  _atom_site_type_symbol
  Hf1      1.0000 0.15625  0.96397  0.28001  Biso   1.000  Hf
  Hf2      1.0000 0.17767  0.22624  0.85269  Biso   1.000  Hf
  Hf3      1.0000 0.41525  0.27697  0.25977  Biso   1.000  Hf
  Hf4      1.0000 0.34861  0.49163  0.75388  Biso   1.000  Hf
  Hf5      1.0000 0.97267  0.04526  0.31381  Biso   1.000  Hf
  Hf6      1.0000 0.00419  0.13606  0.84314  Biso   1.000  Hf
  Hf7      1.0000 0.45337  0.46504  0.41383  Biso   1.000  Hf
  Hf8      1.0000 0.50221  0.36988  0.93279  Biso   1.000  Hf
  Hf9      1.0000 0.23004  0.06712  0.61207  Biso   1.000  Hf
  Hf10     1.0000 0.26661  0.13781  0.12329  Biso   1.000  Hf
  Hf11     1.0000 0.25916  0.39019  0.07331  Biso   1.000  Hf
  Hf12     1.0000 0.28789  0.31548  0.58229  Biso   1.000  Hf
  Hf13     1.0000 0.10245  0.52396  0.17901  Biso   1.000  Hf
  Hf14     1.0000 0.13473  0.74076  0.71365  Biso   1.000  Hf
  Hf15     1.0000 0.40499  0.76892  0.15920  Biso   1.000  Hf
  Hf16     1.0000 0.40133  0.99861  0.71514  Biso   1.000  Hf
  Hf17     1.0000 0.99665  0.65051  0.43908  Biso   1.000  Hf
  Hf18     1.0000 0.99603  0.62393  0.93336  Biso   1.000  Hf
  Hf19     1.0000 0.49309  0.93095  0.38040  Biso   1.000  Hf
  Hf20     1.0000 0.53132  0.86489  0.89316  Biso   1.000  Hf
  Hf21     1.0000 0.20929  0.56466  0.53129  Biso   1.000  Hf
  Hf22     1.0000 0.25007  0.64057  0.00674  Biso   1.000  Hf
  Hf23     1.0000 0.28526  0.89125  0.96937  Biso   1.000  Hf
  Hf24     1.0000 0.26597  0.82482  0.45258  Biso   1.000  Hf
  Hf25     1.0000 0.65351  0.98697  0.15973  Biso   1.000  Hf
  Hf26     1.0000 0.62471  0.23706  0.73300  Biso   1.000  Hf
  Hf27     1.0000 0.80433  0.27311  0.21578  Biso   1.000  Hf
  Hf28     1.0000 0.87699  0.50130  0.71380  Biso   1.000  Hf
  Hf29     1.0000 0.47073  0.16258  0.53494  Biso   1.000  Hf
  Hf30     1.0000 0.51715  0.11322  0.99394  Biso   1.000  Hf
  Hf31     1.0000 0.91417  0.43539  0.33075  Biso   1.000  Hf
  Hf32     1.0000 0.03419  0.38993  0.87097  Biso   1.000  Hf
  Hf33     1.0000 0.73550  0.11400  0.44598  Biso   1.000  Hf
  Hf34     1.0000 0.75373  0.12881  0.93449  Biso   1.000  Hf
  Hf35     1.0000 0.74891  0.38974  0.93011  Biso   1.000  Hf
  Hf36     1.0000 0.63612  0.32723  0.36212  Biso   1.000  Hf
  Hf37     1.0000 0.60745  0.52237  0.18858  Biso   1.000  Hf
  Hf38     1.0000 0.65691  0.73577  0.70186  Biso   1.000  Hf
  Hf39     1.0000 0.89543  0.76189  0.20352  Biso   1.000  Hf
  Hf40     1.0000 0.88268  0.01205  0.65811  Biso   1.000  Hf
  Hf41     1.0000 0.53724  0.69323  0.38409  Biso   1.000  Hf
  Hf42     1.0000 0.50075  0.61910  0.90430  Biso   1.000  Hf
  Hf43     1.0000 0.02008  0.87359  0.55735  Biso   1.000  Hf
  Hf44     1.0000 0.04908  0.84263  0.03665  Biso   1.000  Hf
  Hf45     1.0000 0.73133  0.57763  0.50217  Biso   1.000  Hf
  Hf46     1.0000 0.75480  0.64214  0.99125  Biso   1.000  Hf
  Hf47     1.0000 0.78669  0.88082  0.92528  Biso   1.000  Hf
  Hf48     1.0000 0.75250  0.85782  0.42776  Biso   1.000  Hf
  Cs1      1.0000 0.06455  0.26237  0.38283  Biso   1.000  Cs
