data_image0
_cell_length_a       10.1038
_cell_length_b       10.258
_cell_length_c       10.1097
_cell_angle_alpha    90.1057
_cell_angle_beta     91.4716
_cell_angle_gamma    88.8647

_symmetry_space_group_name_H-M    "P 1"
_symmetry_int_tables_number       1

loop_
  _symmetry_equiv_pos_as_xyz
  'x, y, z'

loop_
  _atom_site_label
  _atom_site_occupancy
  _atom_site_fract_x
  _atom_site_fract_y
  _atom_site_fract_z
  _atom_site_thermal_displace_type
  _atom_site_B_iso_or_equiv
  _atom_site_type_symbol
  Cs1      1.0000 0.10928  0.97006  0.14244  Biso   1.000  Cs
  Hf1      1.0000 0.11508  0.99459  0.61305  Biso   1.000  Hf
  Hf2      1.0000 0.13718  0.51149  0.11506  Biso   1.000  Hf
  Hf3      1.0000 0.12870  0.52260  0.63881  Biso   1.000  Hf
  Hf4      1.0000 0.62194  0.00567  0.12329  Biso   1.000  Hf
  Hf5      1.0000 0.62917  0.01671  0.62109  Biso   1.000  Hf
  Hf6      1.0000 0.61400  0.50515  0.11582  Biso   1.000  Hf
  Hf7      1.0000 0.63271  0.50193  0.61875  Biso   1.000  Hf
  Hf8      1.0000 0.13118  0.24779  0.38448  Biso   1.000  Hf
  Hf9      1.0000 0.12501  0.24120  0.89296  Biso   1.000  Hf
  Hf10     1.0000 0.14078  0.73828  0.38773  Biso   1.000  Hf
  Hf11     1.0000 0.11136  0.75864  0.87417  Biso   1.000  Hf
  Hf12     1.0000 0.62500  0.25853  0.36799  Biso   1.000  Hf
  Hf13     1.0000 0.62318  0.24771  0.87223  Biso   1.000  Hf
  Hf14     1.0000 0.65206  0.73596  0.37230  Biso   1.000  Hf
  Hf15     1.0000 0.61342  0.74246  0.86390  Biso   1.000  Hf
  Hf16     1.0000 0.35976  0.23686  0.13326  Biso   1.000  Hf
  Hf17     1.0000 0.37614  0.25454  0.63207  Biso   1.000  Hf
  Hf18     1.0000 0.39568  0.76708  0.15789  Biso   1.000  Hf
  Hf19     1.0000 0.38859  0.74554  0.62348  Biso   1.000  Hf
  Hf20     1.0000 0.87204  0.24159  0.11887  Biso   1.000  Hf
  Hf21     1.0000 0.90107  0.27508  0.63368  Biso   1.000  Hf
  Hf22     1.0000 0.85092  0.74892  0.10121  Biso   1.000  Hf
  Hf23     1.0000 0.86743  0.74072  0.62572  Biso   1.000  Hf
  Hf24     1.0000 0.38882  0.01593  0.38631  Biso   1.000  Hf
  Hf25     1.0000 0.36960  0.01571  0.87591  Biso   1.000  Hf
  Hf26     1.0000 0.36772  0.48587  0.35588  Biso   1.000  Hf
  Hf27     1.0000 0.36902  0.51558  0.87693  Biso   1.000  Hf
  Hf28     1.0000 0.86397  0.00928  0.37742  Biso   1.000  Hf
  Hf29     1.0000 0.87625  0.01708  0.84865  Biso   1.000  Hf
  Hf30     1.0000 0.87384  0.47853  0.36304  Biso   1.000  Hf
  Hf31     1.0000 0.88821  0.49009  0.89059  Biso   1.000  Hf
  Hf32     1.0000 0.98134  0.13946  0.98319  Biso   1.000  Hf
  Hf33     1.0000 0.99230  0.14599  0.49771  Biso   1.000  Hf
  Hf34     1.0000 0.98822  0.62293  0.01684  Biso   1.000  Hf
  Hf35     1.0000 0.02165  0.66188  0.52726  Biso   1.000  Hf
  Hf36     1.0000 0.50157  0.16017  0.00244  Biso   1.000  Hf
  Hf37     1.0000 0.49902  0.16291  0.49820  Biso   1.000  Hf
  Hf38     1.0000 0.48364  0.65399  0.00567  Biso   1.000  Hf
  Hf39     1.0000 0.53481  0.66699  0.51238  Biso   1.000  Hf
  Hf40     1.0000 0.99576  0.10090  0.24506  Biso   1.000  Hf
  Hf41     1.0000 0.01263  0.12763  0.74499  Biso   1.000  Hf
  Hf42     1.0000 0.03666  0.56267  0.28680  Biso   1.000  Hf
  Hf43     1.0000 0.99242  0.62126  0.76601  Biso   1.000  Hf
  Hf44     1.0000 0.50048  0.11667  0.25346  Biso   1.000  Hf
  Hf45     1.0000 0.50571  0.10217  0.75518  Biso   1.000  Hf
  Hf46     1.0000 0.51537  0.61713  0.25705  Biso   1.000  Hf
  Hf47     1.0000 0.49832  0.59780  0.74624  Biso   1.000  Hf
  Hf48     1.0000 0.97766  0.32619  0.27066  Biso   1.000  Hf
  Hf49     1.0000 0.03118  0.37681  0.76312  Biso   1.000  Hf
  Hf50     1.0000 0.01134  0.76602  0.23221  Biso   1.000  Hf
  Hf51     1.0000 0.97606  0.88093  0.71164  Biso   1.000  Hf
  Hf52     1.0000 0.48935  0.36843  0.21968  Biso   1.000  Hf
  Hf53     1.0000 0.54078  0.34269  0.70985  Biso   1.000  Hf
  Hf54     1.0000 0.53409  0.87002  0.27331  Biso   1.000  Hf
  Hf55     1.0000 0.45659  0.84636  0.78865  Biso   1.000  Hf
  Hf56     1.0000 0.01118  0.37851  0.01798  Biso   1.000  Hf
  Hf57     1.0000 0.01873  0.40076  0.51117  Biso   1.000  Hf
  Hf58     1.0000 0.94536  0.86183  0.95948  Biso   1.000  Hf
  Hf59     1.0000 0.02311  0.90720  0.44701  Biso   1.000  Hf
  Hf60     1.0000 0.52546  0.41140  0.96012  Biso   1.000  Hf
  Hf61     1.0000 0.53004  0.41956  0.46139  Biso   1.000  Hf
  Hf62     1.0000 0.44267  0.92753  0.04583  Biso   1.000  Hf
  Hf63     1.0000 0.48290  0.91213  0.53715  Biso   1.000  Hf
  Hf64     1.0000 0.25858  0.13849  0.27290  Biso   1.000  Hf
  Hf65     1.0000 0.26542  0.16827  0.76638  Biso   1.000  Hf
  Hf66     1.0000 0.26790  0.62614  0.23378  Biso   1.000  Hf
  Hf67     1.0000 0.24255  0.66500  0.74295  Biso   1.000  Hf
  Hf68     1.0000 0.74598  0.14385  0.23781  Biso   1.000  Hf
  Hf69     1.0000 0.75990  0.15647  0.73276  Biso   1.000  Hf
  Hf70     1.0000 0.76646  0.63118  0.24283  Biso   1.000  Hf
  Hf71     1.0000 0.73456  0.65391  0.73469  Biso   1.000  Hf
  Hf72     1.0000 0.24915  0.12265  0.00673  Biso   1.000  Hf
  Hf73     1.0000 0.25147  0.10429  0.51596  Biso   1.000  Hf
  Hf74     1.0000 0.22656  0.61247  0.97318  Biso   1.000  Hf
  Hf75     1.0000 0.27105  0.60168  0.49461  Biso   1.000  Hf
  Hf76     1.0000 0.74061  0.09184  0.98426  Biso   1.000  Hf
  Hf77     1.0000 0.72958  0.10577  0.47957  Biso   1.000  Hf
  Hf78     1.0000 0.74091  0.60157  0.98526  Biso   1.000  Hf
  Hf79     1.0000 0.77348  0.60017  0.49334  Biso   1.000  Hf
  Hf80     1.0000 0.26568  0.37126  0.99306  Biso   1.000  Hf
  Hf81     1.0000 0.27757  0.34847  0.47947  Biso   1.000  Hf
  Hf82     1.0000 0.20891  0.82421  0.05068  Biso   1.000  Hf
  Hf83     1.0000 0.23185  0.84446  0.55222  Biso   1.000  Hf
  Hf84     1.0000 0.76699  0.34650  0.97916  Biso   1.000  Hf
  Hf85     1.0000 0.77056  0.34592  0.48594  Biso   1.000  Hf
  Hf86     1.0000 0.68272  0.83971  0.02182  Biso   1.000  Hf
  Hf87     1.0000 0.75790  0.86266  0.49811  Biso   1.000  Hf
  Hf88     1.0000 0.23326  0.37662  0.24198  Biso   1.000  Hf
  Hf89     1.0000 0.28640  0.41814  0.72295  Biso   1.000  Hf
  Hf90     1.0000 0.28718  0.86248  0.30714  Biso   1.000  Hf
  Hf91     1.0000 0.20199  0.92576  0.80614  Biso   1.000  Hf
  Hf92     1.0000 0.73939  0.39060  0.23401  Biso   1.000  Hf
  Hf93     1.0000 0.78576  0.41524  0.73022  Biso   1.000  Hf
  Hf94     1.0000 0.78328  0.89628  0.23511  Biso   1.000  Hf
  Hf95     1.0000 0.72099  0.90134  0.76263  Biso   1.000  Hf
