data_image0
_cell_length_a       4.9928
_cell_length_b       10.4286
_cell_length_c       10.1027
_cell_angle_alpha    89.8807
_cell_angle_beta     89.3975
_cell_angle_gamma    89.9956

_symmetry_space_group_name_H-M    "P 1"
_symmetry_int_tables_number       1

loop_
  _symmetry_equiv_pos_as_xyz
  'x, y, z'

loop_
  _atom_site_label
  _atom_site_occupancy
  _atom_site_fract_x
  _atom_site_fract_y
  _atom_site_fract_z
  _atom_site_thermal_displace_type
  _atom_site_B_iso_or_equiv
  _atom_site_type_symbol
  Cs1      1.0000 0.22431  0.00789  0.11451  Biso   1.000  Cs
  Hf1      1.0000 0.25762  0.02117  0.63820  Biso   1.000  Hf
  Hf2      1.0000 0.26593  0.51382  0.12875  Biso   1.000  Hf
  Hf3      1.0000 0.26599  0.51758  0.62818  Biso   1.000  Hf
  Hf4      1.0000 0.26839  0.23195  0.38498  Biso   1.000  Hf
  Hf5      1.0000 0.26893  0.23636  0.86597  Biso   1.000  Hf
  Hf6      1.0000 0.26622  0.73376  0.38093  Biso   1.000  Hf
  Hf7      1.0000 0.27410  0.72871  0.87679  Biso   1.000  Hf
  Hf8      1.0000 0.71149  0.26712  0.13370  Biso   1.000  Hf
  Hf9      1.0000 0.73563  0.27013  0.62370  Biso   1.000  Hf
  Hf10     1.0000 0.73077  0.75460  0.12647  Biso   1.000  Hf
  Hf11     1.0000 0.72980  0.76297  0.62255  Biso   1.000  Hf
  Hf12     1.0000 0.72781  0.48416  0.37775  Biso   1.000  Hf
  Hf13     1.0000 0.73322  0.47898  0.87878  Biso   1.000  Hf
  Hf14     1.0000 0.71770  0.98642  0.39050  Biso   1.000  Hf
  Hf15     1.0000 0.73618  0.97976  0.86233  Biso   1.000  Hf
  Hf16     1.0000 0.06812  0.20656  0.20280  Biso   1.000  Hf
  Hf17     1.0000 0.10030  0.20321  0.66904  Biso   1.000  Hf
  Hf18     1.0000 0.08150  0.68825  0.19595  Biso   1.000  Hf
  Hf19     1.0000 0.07170  0.68556  0.69759  Biso   1.000  Hf
  Hf20     1.0000 0.07110  0.06429  0.44403  Biso   1.000  Hf
  Hf21     1.0000 0.10359  0.05857  0.86120  Biso   1.000  Hf
  Hf22     1.0000 0.06720  0.56612  0.44858  Biso   1.000  Hf
  Hf23     1.0000 0.06786  0.56489  0.94825  Biso   1.000  Hf
  Hf24     1.0000 0.91628  0.43677  0.19285  Biso   1.000  Hf
  Hf25     1.0000 0.92935  0.43614  0.69972  Biso   1.000  Hf
  Hf26     1.0000 0.87822  0.93790  0.19793  Biso   1.000  Hf
  Hf27     1.0000 0.90482  0.93302  0.67531  Biso   1.000  Hf
  Hf28     1.0000 0.92083  0.31972  0.44212  Biso   1.000  Hf
  Hf29     1.0000 0.92408  0.30691  0.94423  Biso   1.000  Hf
  Hf30     1.0000 0.92314  0.81383  0.44414  Biso   1.000  Hf
  Hf31     1.0000 0.95304  0.82299  0.95127  Biso   1.000  Hf
  Hf32     1.0000 0.56639  0.13267  0.26807  Biso   1.000  Hf
  Hf33     1.0000 0.56577  0.12576  0.75063  Biso   1.000  Hf
  Hf34     1.0000 0.53779  0.61201  0.24979  Biso   1.000  Hf
  Hf35     1.0000 0.54196  0.61542  0.75161  Biso   1.000  Hf
  Hf36     1.0000 0.53583  0.13023  0.51036  Biso   1.000  Hf
  Hf37     1.0000 0.54658  0.12603  0.99886  Biso   1.000  Hf
  Hf38     1.0000 0.53590  0.63135  0.50035  Biso   1.000  Hf
  Hf39     1.0000 0.54180  0.62490  0.00093  Biso   1.000  Hf
  Hf40     1.0000 0.45818  0.38346  0.50340  Biso   1.000  Hf
  Hf41     1.0000 0.45450  0.37871  0.00257  Biso   1.000  Hf
  Hf42     1.0000 0.44219  0.88214  0.50826  Biso   1.000  Hf
  Hf43     1.0000 0.49349  0.86622  0.99393  Biso   1.000  Hf
  Hf44     1.0000 0.44671  0.37222  0.25519  Biso   1.000  Hf
  Hf45     1.0000 0.46186  0.37168  0.75125  Biso   1.000  Hf
  Hf46     1.0000 0.50484  0.85181  0.26468  Biso   1.000  Hf
  Hf47     1.0000 0.45971  0.86646  0.75178  Biso   1.000  Hf
