data_image0
_cell_length_a       5.06032
_cell_length_b       10.4198
_cell_length_c       10.4562
_cell_angle_alpha    89.9241
_cell_angle_beta     81.1734
_cell_angle_gamma    90.5647

_symmetry_space_group_name_H-M    "P 1"
_symmetry_int_tables_number       1

loop_
  _symmetry_equiv_pos_as_xyz
  'x, y, z'

loop_
  _atom_site_label
  _atom_site_occupancy
  _atom_site_fract_x
  _atom_site_fract_y
  _atom_site_fract_z
  _atom_site_thermal_displace_type
  _atom_site_B_iso_or_equiv
  _atom_site_type_symbol
  Cs1      1.0000 0.23443  0.01068  0.11903  Biso   1.000  Cs
  Hf1      1.0000 0.28113  0.02352  0.64843  Biso   1.000  Hf
  Hf2      1.0000 0.27108  0.51701  0.14591  Biso   1.000  Hf
  Hf3      1.0000 0.27824  0.52148  0.64304  Biso   1.000  Hf
  Hf4      1.0000 0.27142  0.22635  0.39617  Biso   1.000  Hf
  Hf5      1.0000 0.27255  0.23686  0.89147  Biso   1.000  Hf
  Hf6      1.0000 0.27206  0.72716  0.39587  Biso   1.000  Hf
  Hf7      1.0000 0.28948  0.72610  0.89079  Biso   1.000  Hf
  Hf8      1.0000 0.70267  0.27321  0.10921  Biso   1.000  Hf
  Hf9      1.0000 0.72407  0.27210  0.60402  Biso   1.000  Hf
  Hf10     1.0000 0.72585  0.75495  0.10264  Biso   1.000  Hf
  Hf11     1.0000 0.72517  0.77187  0.60149  Biso   1.000  Hf
  Hf12     1.0000 0.71602  0.47782  0.35534  Biso   1.000  Hf
  Hf13     1.0000 0.72528  0.47834  0.85126  Biso   1.000  Hf
  Hf14     1.0000 0.70386  0.98354  0.36455  Biso   1.000  Hf
  Hf15     1.0000 0.73611  0.97488  0.85028  Biso   1.000  Hf
  O1       1.0000 0.08235  0.21248  0.08407  Biso   1.000  O
  O2       1.0000 0.07295  0.17431  0.58757  Biso   1.000  O
  O3       1.0000 0.09112  0.67499  0.08218  Biso   1.000  O
  O4       1.0000 0.07402  0.67161  0.58271  Biso   1.000  O
  O5       1.0000 0.05830  0.07655  0.35006  Biso   1.000  O
  O6       1.0000 0.08072  0.07900  0.83608  Biso   1.000  O
  O7       1.0000 0.06716  0.57898  0.33101  Biso   1.000  O
  O8       1.0000 0.07850  0.57555  0.83160  Biso   1.000  O
  O9       1.0000 0.90683  0.42876  0.16644  Biso   1.000  O
  O10      1.0000 0.92457  0.42417  0.66569  Biso   1.000  O
  O11      1.0000 0.88517  0.91984  0.18017  Biso   1.000  O
  O12      1.0000 0.93231  0.92020  0.66997  Biso   1.000  O
  O13      1.0000 0.92221  0.32911  0.41832  Biso   1.000  O
  O14      1.0000 0.91300  0.32438  0.91045  Biso   1.000  O
  O15      1.0000 0.92720  0.82985  0.42055  Biso   1.000  O
  O16      1.0000 0.96268  0.83543  0.92259  Biso   1.000  O
  O17      1.0000 0.57128  0.13840  0.25162  Biso   1.000  O
  O18      1.0000 0.55806  0.13121  0.74302  Biso   1.000  O
  O19      1.0000 0.54689  0.62092  0.23949  Biso   1.000  O
  O20      1.0000 0.55735  0.62933  0.73800  Biso   1.000  O
  O21      1.0000 0.54336  0.12272  0.49823  Biso   1.000  O
  O22      1.0000 0.55556  0.11943  0.98798  Biso   1.000  O
  O23      1.0000 0.55013  0.62163  0.48915  Biso   1.000  O
  O24      1.0000 0.56018  0.61428  0.98952  Biso   1.000  O
  O25      1.0000 0.44666  0.38148  0.00612  Biso   1.000  O
  O26      1.0000 0.44530  0.38078  0.50907  Biso   1.000  O
  O27      1.0000 0.50268  0.85784  0.99070  Biso   1.000  O
  O28      1.0000 0.44390  0.88149  0.51214  Biso   1.000  O
  O29      1.0000 0.43186  0.37162  0.25947  Biso   1.000  O
  O30      1.0000 0.44508  0.37234  0.75651  Biso   1.000  O
  O31      1.0000 0.47976  0.85437  0.26227  Biso   1.000  O
  O32      1.0000 0.45348  0.87043  0.75514  Biso   1.000  O
