data_image0
_cell_length_a       9.93472
_cell_length_b       10.3558
_cell_length_c       9.99425
_cell_angle_alpha    90.1663
_cell_angle_beta     89.3826
_cell_angle_gamma    90.0028

_symmetry_space_group_name_H-M    "P 1"
_symmetry_int_tables_number       1

loop_
  _symmetry_equiv_pos_as_xyz
  'x, y, z'

loop_
  _atom_site_label
  _atom_site_occupancy
  _atom_site_fract_x
  _atom_site_fract_y
  _atom_site_fract_z
  _atom_site_thermal_displace_type
  _atom_site_B_iso_or_equiv
  _atom_site_type_symbol
  Cu1      1.0000 0.11795  0.02766  0.10010  Biso   1.000  Cu
  Hf1      1.0000 0.13984  0.22841  0.37496  Biso   1.000  Hf
  Hf2      1.0000 0.36568  0.26505  0.12955  Biso   1.000  Hf
  Hf3      1.0000 0.36681  0.48308  0.37769  Biso   1.000  Hf
  Hf4      1.0000 0.04259  0.17635  0.18343  Biso   1.000  Hf
  Hf5      1.0000 0.03996  0.06496  0.44679  Biso   1.000  Hf
  Hf6      1.0000 0.46408  0.43298  0.19517  Biso   1.000  Hf
  Hf7      1.0000 0.46481  0.31608  0.44565  Biso   1.000  Hf
  Hf8      1.0000 0.28452  0.12619  0.25848  Biso   1.000  Hf
  Hf9      1.0000 0.27104  0.13026  0.50629  Biso   1.000  Hf
  Hf10     1.0000 0.22933  0.38000  0.50063  Biso   1.000  Hf
  Hf11     1.0000 0.22785  0.36874  0.25068  Biso   1.000  Hf
  Hf12     1.0000 0.13493  0.01781  0.63267  Biso   1.000  Hf
  Hf13     1.0000 0.13320  0.23742  0.87724  Biso   1.000  Hf
  Hf14     1.0000 0.36636  0.26717  0.62784  Biso   1.000  Hf
  Hf15     1.0000 0.36533  0.48489  0.87689  Biso   1.000  Hf
  Hf16     1.0000 0.03686  0.18799  0.69347  Biso   1.000  Hf
  Hf17     1.0000 0.03599  0.06459  0.91704  Biso   1.000  Hf
  Hf18     1.0000 0.46278  0.43550  0.69481  Biso   1.000  Hf
  Hf19     1.0000 0.45822  0.31186  0.94104  Biso   1.000  Hf
  Hf20     1.0000 0.27340  0.12177  0.75640  Biso   1.000  Hf
  Hf21     1.0000 0.25728  0.12794  0.00968  Biso   1.000  Hf
  Hf22     1.0000 0.22954  0.38240  0.00129  Biso   1.000  Hf
  Hf23     1.0000 0.22762  0.37017  0.75071  Biso   1.000  Hf
  Hf24     1.0000 0.13548  0.51606  0.12795  Biso   1.000  Hf
  Hf25     1.0000 0.13730  0.73339  0.37857  Biso   1.000  Hf
  Hf26     1.0000 0.36430  0.76684  0.13104  Biso   1.000  Hf
  Hf27     1.0000 0.36285  0.98223  0.37628  Biso   1.000  Hf
  Hf28     1.0000 0.03776  0.68406  0.19499  Biso   1.000  Hf
  Hf29     1.0000 0.03731  0.56343  0.44509  Biso   1.000  Hf
  Hf30     1.0000 0.46993  0.93226  0.19771  Biso   1.000  Hf
  Hf31     1.0000 0.46850  0.81756  0.45227  Biso   1.000  Hf
  Hf32     1.0000 0.27138  0.61355  0.25105  Biso   1.000  Hf
  Hf33     1.0000 0.27298  0.63174  0.50222  Biso   1.000  Hf
  Hf34     1.0000 0.22805  0.88143  0.50813  Biso   1.000  Hf
  Hf35     1.0000 0.24281  0.85797  0.26341  Biso   1.000  Hf
  Hf36     1.0000 0.13440  0.51702  0.62646  Biso   1.000  Hf
  Hf37     1.0000 0.13207  0.73364  0.87917  Biso   1.000  Hf
  Hf38     1.0000 0.36580  0.76839  0.62992  Biso   1.000  Hf
  Hf39     1.0000 0.36071  0.98425  0.88368  Biso   1.000  Hf
  Hf40     1.0000 0.03635  0.68550  0.69460  Biso   1.000  Hf
  Hf41     1.0000 0.03427  0.56529  0.94585  Biso   1.000  Hf
  Hf42     1.0000 0.46162  0.93591  0.69937  Biso   1.000  Hf
  Hf43     1.0000 0.45571  0.81563  0.94450  Biso   1.000  Hf
  Hf44     1.0000 0.26914  0.61893  0.75239  Biso   1.000  Hf
  Hf45     1.0000 0.26885  0.63415  0.00198  Biso   1.000  Hf
  Hf46     1.0000 0.21856  0.88793  0.01322  Biso   1.000  Hf
  Hf47     1.0000 0.22735  0.87004  0.75771  Biso   1.000  Hf
  Hf48     1.0000 0.63564  0.01686  0.12649  Biso   1.000  Hf
  Hf49     1.0000 0.63450  0.23301  0.37556  Biso   1.000  Hf
  Hf50     1.0000 0.86494  0.26494  0.12391  Biso   1.000  Hf
  Hf51     1.0000 0.86757  0.48265  0.37548  Biso   1.000  Hf
  Hf52     1.0000 0.54157  0.18698  0.19146  Biso   1.000  Hf
  Hf53     1.0000 0.53712  0.06570  0.44208  Biso   1.000  Hf
  Hf54     1.0000 0.96603  0.42798  0.19384  Biso   1.000  Hf
  Hf55     1.0000 0.96425  0.31253  0.43941  Biso   1.000  Hf
  Hf56     1.0000 0.77381  0.11810  0.24810  Biso   1.000  Hf
  Hf57     1.0000 0.77220  0.13195  0.49702  Biso   1.000  Hf
  Hf58     1.0000 0.73052  0.38228  0.49975  Biso   1.000  Hf
  Hf59     1.0000 0.73016  0.36807  0.24973  Biso   1.000  Hf
  Hf60     1.0000 0.63070  0.01489  0.62222  Biso   1.000  Hf
  Hf61     1.0000 0.63233  0.23250  0.87494  Biso   1.000  Hf
  Hf62     1.0000 0.86476  0.26601  0.62329  Biso   1.000  Hf
  Hf63     1.0000 0.86417  0.48409  0.87487  Biso   1.000  Hf
  Hf64     1.0000 0.53727  0.18518  0.69239  Biso   1.000  Hf
  Hf65     1.0000 0.53231  0.06653  0.94774  Biso   1.000  Hf
  Hf66     1.0000 0.96221  0.43463  0.69230  Biso   1.000  Hf
  Hf67     1.0000 0.96124  0.31634  0.94263  Biso   1.000  Hf
  Hf68     1.0000 0.76789  0.11685  0.74631  Biso   1.000  Hf
  Hf69     1.0000 0.77125  0.13080  0.99647  Biso   1.000  Hf
  Hf70     1.0000 0.72749  0.38055  0.00025  Biso   1.000  Hf
  Hf71     1.0000 0.72809  0.36773  0.74962  Biso   1.000  Hf
  Hf72     1.0000 0.63489  0.51684  0.12843  Biso   1.000  Hf
  Hf73     1.0000 0.63616  0.73550  0.37527  Biso   1.000  Hf
  Hf74     1.0000 0.87162  0.76635  0.12148  Biso   1.000  Hf
  Hf75     1.0000 0.87276  0.98616  0.37326  Biso   1.000  Hf
  Hf76     1.0000 0.53742  0.68524  0.19625  Biso   1.000  Hf
  Hf77     1.0000 0.53816  0.56634  0.44340  Biso   1.000  Hf
  Hf78     1.0000 0.97361  0.94070  0.18161  Biso   1.000  Hf
  Hf79     1.0000 0.96432  0.81565  0.43980  Biso   1.000  Hf
  Hf80     1.0000 0.77361  0.61674  0.24874  Biso   1.000  Hf
  Hf81     1.0000 0.77046  0.63279  0.49890  Biso   1.000  Hf
  Hf82     1.0000 0.73262  0.88396  0.49645  Biso   1.000  Hf
  Hf83     1.0000 0.74069  0.86826  0.24691  Biso   1.000  Hf
  Hf84     1.0000 0.63369  0.51723  0.62549  Biso   1.000  Hf
  Hf85     1.0000 0.63083  0.73337  0.87702  Biso   1.000  Hf
  Hf86     1.0000 0.86637  0.76618  0.62312  Biso   1.000  Hf
  Hf87     1.0000 0.85985  0.98175  0.87061  Biso   1.000  Hf
  Hf88     1.0000 0.53468  0.68345  0.69695  Biso   1.000  Hf
  Hf89     1.0000 0.53557  0.56467  0.94668  Biso   1.000  Hf
  Hf90     1.0000 0.96003  0.93516  0.68754  Biso   1.000  Hf
  Hf91     1.0000 0.95832  0.81484  0.93740  Biso   1.000  Hf
  Hf92     1.0000 0.76920  0.61802  0.74973  Biso   1.000  Hf
  Hf93     1.0000 0.76964  0.63243  0.99973  Biso   1.000  Hf
  Hf94     1.0000 0.72425  0.88071  0.99787  Biso   1.000  Hf
  Hf95     1.0000 0.72642  0.86614  0.74698  Biso   1.000  Hf
