data_image0
_cell_length_a       10.0485
_cell_length_b       10.2407
_cell_length_c       10.4912
_cell_angle_alpha    89.5858
_cell_angle_beta     90.4099
_cell_angle_gamma    89.913

_symmetry_space_group_name_H-M    "P 1"
_symmetry_int_tables_number       1

loop_
  _symmetry_equiv_pos_as_xyz
  'x, y, z'

loop_
  _atom_site_label
  _atom_site_occupancy
  _atom_site_fract_x
  _atom_site_fract_y
  _atom_site_fract_z
  _atom_site_thermal_displace_type
  _atom_site_B_iso_or_equiv
  _atom_site_type_symbol
  Hf1      1.0000 0.14118  0.01884  0.17130  Biso   1.000  Hf
  Hf2      1.0000 0.13579  0.22953  0.42165  Biso   1.000  Hf
  Hf3      1.0000 0.35704  0.26835  0.17448  Biso   1.000  Hf
  Hf4      1.0000 0.36037  0.48085  0.42305  Biso   1.000  Hf
  Hf5      1.0000 0.63533  0.02214  0.06819  Biso   1.000  Hf
  Hf6      1.0000 0.63294  0.23349  0.33679  Biso   1.000  Hf
  Hf7      1.0000 0.87765  0.27031  0.07206  Biso   1.000  Hf
  Hf8      1.0000 0.86035  0.48140  0.33289  Biso   1.000  Hf
  O1       1.0000 0.04153  0.16198  0.07770  Biso   1.000  O
  O2       1.0000 0.02801  0.09089  0.32675  Biso   1.000  O
  O3       1.0000 0.48094  0.39991  0.07966  Biso   1.000  O
  O4       1.0000 0.46133  0.33630  0.33515  Biso   1.000  O
  O5       1.0000 0.27217  0.12339  0.29614  Biso   1.000  O
  O6       1.0000 0.28074  0.12339  0.04300  Biso   1.000  O
  O7       1.0000 0.22074  0.37361  0.29458  Biso   1.000  O
  O8       1.0000 0.22808  0.37574  0.04478  Biso   1.000  O
  O9       1.0000 0.51776  0.14491  0.18116  Biso   1.000  O
  O10      1.0000 0.52877  0.08783  0.42537  Biso   1.000  O
  O11      1.0000 0.96525  0.41584  0.16878  Biso   1.000  O
  O12      1.0000 0.96567  0.33734  0.41940  Biso   1.000  O
  O13      1.0000 0.77677  0.12315  0.45251  Biso   1.000  O
  O14      1.0000 0.75830  0.15005  0.19162  Biso   1.000  O
  O15      1.0000 0.72370  0.37359  0.46465  Biso   1.000  O
  O16      1.0000 0.71349  0.39735  0.22173  Biso   1.000  O
  Hf9      1.0000 0.13945  0.02007  0.66982  Biso   1.000  Hf
  Hf10     1.0000 0.14598  0.22551  0.91683  Biso   1.000  Hf
  Hf11     1.0000 0.36384  0.27000  0.67068  Biso   1.000  Hf
  Hf12     1.0000 0.36320  0.47708  0.92055  Biso   1.000  Hf
  Hf13     1.0000 0.63803  0.02243  0.58074  Biso   1.000  Hf
  Hf14     1.0000 0.63827  0.22523  0.83660  Biso   1.000  Hf
  Hf15     1.0000 0.86038  0.27013  0.58241  Biso   1.000  Hf
  Hf16     1.0000 0.86240  0.47881  0.82949  Biso   1.000  Hf
  O17      1.0000 0.03205  0.16351  0.58130  Biso   1.000  O
  O18      1.0000 0.03707  0.08406  0.83023  Biso   1.000  O
  O19      1.0000 0.46714  0.41593  0.58413  Biso   1.000  O
  O20      1.0000 0.46707  0.33363  0.83429  Biso   1.000  O
  O21      1.0000 0.27903  0.12155  0.79280  Biso   1.000  O
  O22      1.0000 0.27502  0.12623  0.54455  Biso   1.000  O
  O23      1.0000 0.22573  0.37260  0.79371  Biso   1.000  O
  O24      1.0000 0.22332  0.37646  0.54447  Biso   1.000  O
  O25      1.0000 0.53414  0.16627  0.66806  Biso   1.000  O
  O26      1.0000 0.53507  0.06643  0.90077  Biso   1.000  O
  O27      1.0000 0.96621  0.41517  0.66700  Biso   1.000  O
  O28      1.0000 0.97436  0.33525  0.91198  Biso   1.000  O
  O29      1.0000 0.79039  0.11679  0.94829  Biso   1.000  O
  O30      1.0000 0.77692  0.12478  0.70318  Biso   1.000  O
  O31      1.0000 0.72549  0.37062  0.96741  Biso   1.000  O
  O32      1.0000 0.72438  0.37576  0.71347  Biso   1.000  O
  Hf17     1.0000 0.13816  0.52162  0.17224  Biso   1.000  Hf
  Hf18     1.0000 0.13726  0.72942  0.42135  Biso   1.000  Hf
  Hf19     1.0000 0.36035  0.77148  0.17226  Biso   1.000  Hf
  Hf20     1.0000 0.36167  0.97879  0.42377  Biso   1.000  Hf
  Hf21     1.0000 0.64415  0.53188  0.08172  Biso   1.000  Hf
  Hf22     1.0000 0.63874  0.73201  0.32964  Biso   1.000  Hf
  Hf23     1.0000 0.86334  0.77576  0.07852  Biso   1.000  Hf
  Hf24     1.0000 0.86030  0.98014  0.32827  Biso   1.000  Hf
  O33      1.0000 0.03329  0.66478  0.08207  Biso   1.000  O
  O34      1.0000 0.03239  0.58769  0.33131  Biso   1.000  O
  O35      1.0000 0.46578  0.90956  0.07912  Biso   1.000  O
  O36      1.0000 0.46713  0.83788  0.33207  Biso   1.000  O
  O37      1.0000 0.27474  0.62412  0.29592  Biso   1.000  O
  O38      1.0000 0.27835  0.62312  0.04624  Biso   1.000  O
  O39      1.0000 0.22307  0.87347  0.29571  Biso   1.000  O
  O40      1.0000 0.22132  0.87347  0.04563  Biso   1.000  O
  O41      1.0000 0.53074  0.66355  0.17093  Biso   1.000  O
  O42      1.0000 0.53211  0.58792  0.41979  Biso   1.000  O
  O43      1.0000 0.96664  0.91877  0.16636  Biso   1.000  O
  O44      1.0000 0.96517  0.83857  0.41548  Biso   1.000  O
  O45      1.0000 0.77539  0.62456  0.45595  Biso   1.000  O
  O46      1.0000 0.77972  0.63730  0.20612  Biso   1.000  O
  O47      1.0000 0.72277  0.87468  0.45579  Biso   1.000  O
  O48      1.0000 0.72431  0.88442  0.20542  Biso   1.000  O
  Hf25     1.0000 0.13801  0.52002  0.67069  Biso   1.000  Hf
  Hf26     1.0000 0.13920  0.72656  0.92136  Biso   1.000  Hf
  Hf27     1.0000 0.36140  0.76871  0.67171  Biso   1.000  Hf
  Hf28     1.0000 0.36064  0.97326  0.91916  Biso   1.000  Hf
  Hf29     1.0000 0.63906  0.52066  0.58093  Biso   1.000  Hf
  Hf30     1.0000 0.63927  0.72810  0.82818  Biso   1.000  Hf
  Hf31     1.0000 0.86036  0.77185  0.57881  Biso   1.000  Hf
  Hf32     1.0000 0.86363  0.97744  0.82635  Biso   1.000  Hf
  O49      1.0000 0.03156  0.66448  0.58088  Biso   1.000  O
  O50      1.0000 0.03287  0.58520  0.83094  Biso   1.000  O
  O51      1.0000 0.46726  0.91301  0.58510  Biso   1.000  O
  O52      1.0000 0.46468  0.82699  0.83353  Biso   1.000  O
  O53      1.0000 0.27650  0.62037  0.79515  Biso   1.000  O
  O54      1.0000 0.27444  0.62609  0.54528  Biso   1.000  O
  O55      1.0000 0.22331  0.87085  0.79407  Biso   1.000  O
  O56      1.0000 0.22368  0.87563  0.54444  Biso   1.000  O
  O57      1.0000 0.53267  0.66282  0.66854  Biso   1.000  O
  O58      1.0000 0.53365  0.58476  0.92028  Biso   1.000  O
  O59      1.0000 0.96863  0.91394  0.66399  Biso   1.000  O
  O60      1.0000 0.97001  0.83487  0.91645  Biso   1.000  O
  O61      1.0000 0.77916  0.62321  0.95514  Biso   1.000  O
  O62      1.0000 0.77737  0.62576  0.70538  Biso   1.000  O
  O63      1.0000 0.72510  0.87031  0.95398  Biso   1.000  O
  O64      1.0000 0.72437  0.87441  0.70506  Biso   1.000  O
  Fe1      1.0000 0.62631  0.27156  0.10209  Biso   1.000  Fe
