data_image0
_cell_length_a       10.0517
_cell_length_b       4.99789
_cell_length_c       10.0521
_cell_angle_alpha    90.0004
_cell_angle_beta     90.0001
_cell_angle_gamma    90

_symmetry_space_group_name_H-M    "P 1"
_symmetry_int_tables_number       1

loop_
  _symmetry_equiv_pos_as_xyz
  'x, y, z'

loop_
  _atom_site_label
  _atom_site_occupancy
  _atom_site_fract_x
  _atom_site_fract_y
  _atom_site_fract_z
  _atom_site_thermal_displace_type
  _atom_site_B_iso_or_equiv
  _atom_site_type_symbol
  Fe1      1.0000 0.12491  0.00011  0.12491  Biso   1.000  Fe
  Hf1      1.0000 0.12491  0.50010  0.37544  Biso   1.000  Hf
  Hf2      1.0000 0.37543  0.50011  0.12491  Biso   1.000  Hf
  Hf3      1.0000 0.37310  0.01134  0.37310  Biso   1.000  Hf
  Hf4      1.0000 0.97483  0.30967  0.97482  Biso   1.000  Hf
  Hf5      1.0000 0.02390  0.20249  0.22589  Biso   1.000  Hf
  Hf6      1.0000 0.97484  0.69055  0.27500  Biso   1.000  Hf
  Hf7      1.0000 0.02390  0.79773  0.02393  Biso   1.000  Hf
  Hf8      1.0000 0.27498  0.30966  0.27500  Biso   1.000  Hf
  Hf9      1.0000 0.22591  0.20249  0.02393  Biso   1.000  Hf
  Hf10     1.0000 0.27498  0.69055  0.97482  Biso   1.000  Hf
  Hf11     1.0000 0.22591  0.79772  0.22589  Biso   1.000  Hf
  Hf12     1.0000 0.12491  0.00011  0.62491  Biso   1.000  Hf
  Hf13     1.0000 0.12491  0.50011  0.87438  Biso   1.000  Hf
  Hf14     1.0000 0.37597  0.50011  0.62491  Biso   1.000  Hf
  Hf15     1.0000 0.37310  0.98888  0.87672  Biso   1.000  Hf
  Hf16     1.0000 0.98746  0.26096  0.47858  Biso   1.000  Hf
  Hf17     1.0000 0.01068  0.24752  0.73177  Biso   1.000  Hf
  Hf18     1.0000 0.98746  0.73926  0.77124  Biso   1.000  Hf
  Hf19     1.0000 0.01068  0.75270  0.51805  Biso   1.000  Hf
  Hf20     1.0000 0.26236  0.26096  0.77124  Biso   1.000  Hf
  Hf21     1.0000 0.23914  0.24751  0.51805  Biso   1.000  Hf
  Hf22     1.0000 0.26235  0.73925  0.47858  Biso   1.000  Hf
  Hf23     1.0000 0.23914  0.75270  0.73177  Biso   1.000  Hf
  Hf24     1.0000 0.62491  0.00011  0.12491  Biso   1.000  Hf
  Hf25     1.0000 0.62491  0.50010  0.37596  Biso   1.000  Hf
  Hf26     1.0000 0.87439  0.50011  0.12491  Biso   1.000  Hf
  Hf27     1.0000 0.87672  0.98888  0.37310  Biso   1.000  Hf
  Hf28     1.0000 0.47860  0.26100  0.98742  Biso   1.000  Hf
  Hf29     1.0000 0.51802  0.24750  0.23910  Biso   1.000  Hf
  Hf30     1.0000 0.47860  0.73921  0.26240  Biso   1.000  Hf
  Hf31     1.0000 0.51802  0.75272  0.01072  Biso   1.000  Hf
  Hf32     1.0000 0.77122  0.26101  0.26239  Biso   1.000  Hf
  Hf33     1.0000 0.73180  0.24750  0.01072  Biso   1.000  Hf
  Hf34     1.0000 0.77122  0.73921  0.98742  Biso   1.000  Hf
  Hf35     1.0000 0.73180  0.75272  0.23910  Biso   1.000  Hf
  Hf36     1.0000 0.62491  0.00011  0.62491  Biso   1.000  Hf
  Hf37     1.0000 0.62491  0.50010  0.87386  Biso   1.000  Hf
  Hf38     1.0000 0.87384  0.50011  0.62491  Biso   1.000  Hf
  Hf39     1.0000 0.87672  0.01134  0.87672  Biso   1.000  Hf
  Hf40     1.0000 0.48749  0.25916  0.48745  Biso   1.000  Hf
  Hf41     1.0000 0.51184  0.24897  0.73794  Biso   1.000  Hf
  Hf42     1.0000 0.48750  0.74106  0.76236  Biso   1.000  Hf
  Hf43     1.0000 0.51184  0.75125  0.51188  Biso   1.000  Hf
  Hf44     1.0000 0.76232  0.25916  0.76236  Biso   1.000  Hf
  Hf45     1.0000 0.73798  0.24897  0.51188  Biso   1.000  Hf
  Hf46     1.0000 0.76232  0.74105  0.48746  Biso   1.000  Hf
  Hf47     1.0000 0.73797  0.75125  0.73794  Biso   1.000  Hf
