data_image0
_cell_length_a       5.02787
_cell_length_b       10.224
_cell_length_c       10.3793
_cell_angle_alpha    89.7989
_cell_angle_beta     80.2463
_cell_angle_gamma    89.9915

_symmetry_space_group_name_H-M    "P 1"
_symmetry_int_tables_number       1

loop_
  _symmetry_equiv_pos_as_xyz
  'x, y, z'

loop_
  _atom_site_label
  _atom_site_occupancy
  _atom_site_fract_x
  _atom_site_fract_y
  _atom_site_fract_z
  _atom_site_thermal_displace_type
  _atom_site_B_iso_or_equiv
  _atom_site_type_symbol
  Fe1      1.0000 0.27416  0.02316  0.15187  Biso   1.000  Fe
  Hf1      1.0000 0.27840  0.22861  0.39270  Biso   1.000  Hf
  Hf2      1.0000 0.72674  0.26636  0.10708  Biso   1.000  Hf
  Hf3      1.0000 0.72387  0.48024  0.35405  Biso   1.000  Hf
  O1       1.0000 0.07410  0.15996  0.08358  Biso   1.000  O
  O2       1.0000 0.07822  0.08430  0.31274  Biso   1.000  O
  O3       1.0000 0.93057  0.41951  0.16894  Biso   1.000  O
  O4       1.0000 0.92735  0.32986  0.41858  Biso   1.000  O
  O5       1.0000 0.54082  0.12338  0.23744  Biso   1.000  O
  O6       1.0000 0.55802  0.12145  0.48785  Biso   1.000  O
  O7       1.0000 0.44723  0.37815  0.01121  Biso   1.000  O
  O8       1.0000 0.45159  0.37027  0.25960  Biso   1.000  O
  Hf4      1.0000 0.27588  0.02038  0.64561  Biso   1.000  Hf
  Hf5      1.0000 0.27494  0.22428  0.90074  Biso   1.000  Hf
  Hf6      1.0000 0.72022  0.27150  0.60461  Biso   1.000  Hf
  Hf7      1.0000 0.72044  0.47760  0.85652  Biso   1.000  Hf
  O9       1.0000 0.06870  0.16520  0.57451  Biso   1.000  O
  O10      1.0000 0.06659  0.08063  0.82896  Biso   1.000  O
  O11      1.0000 0.92879  0.41807  0.67073  Biso   1.000  O
  O12      1.0000 0.92366  0.32433  0.92179  Biso   1.000  O
  O13      1.0000 0.55256  0.12858  0.74332  Biso   1.000  O
  O14      1.0000 0.53766  0.11453  0.00220  Biso   1.000  O
  O15      1.0000 0.44540  0.37887  0.50968  Biso   1.000  O
  O16      1.0000 0.44487  0.36967  0.76112  Biso   1.000  O
  Hf8      1.0000 0.28058  0.52255  0.14606  Biso   1.000  Hf
  Hf9      1.0000 0.27971  0.73172  0.39424  Biso   1.000  Hf
  Hf10     1.0000 0.72504  0.77902  0.10423  Biso   1.000  Hf
  Hf11     1.0000 0.72435  0.98096  0.34801  Biso   1.000  Hf
  O17      1.0000 0.07077  0.67031  0.08227  Biso   1.000  O
  O18      1.0000 0.07692  0.57944  0.33218  Biso   1.000  O
  O19      1.0000 0.95654  0.92472  0.16474  Biso   1.000  O
  O20      1.0000 0.92830  0.83191  0.41619  Biso   1.000  O
  O21      1.0000 0.55677  0.63395  0.24134  Biso   1.000  O
  O22      1.0000 0.55500  0.62144  0.49109  Biso   1.000  O
  O23      1.0000 0.43776  0.88520  0.01289  Biso   1.000  O
  O24      1.0000 0.44814  0.87890  0.25362  Biso   1.000  O
  Hf12     1.0000 0.27867  0.52135  0.64701  Biso   1.000  Hf
  Hf13     1.0000 0.27672  0.72960  0.89853  Biso   1.000  Hf
  Hf14     1.0000 0.72177  0.77142  0.60371  Biso   1.000  Hf
  Hf15     1.0000 0.71485  0.97881  0.85656  Biso   1.000  Hf
  O25      1.0000 0.07356  0.67065  0.58031  Biso   1.000  O
  O26      1.0000 0.07352  0.57849  0.83335  Biso   1.000  O
  O27      1.0000 0.92607  0.91937  0.66915  Biso   1.000  O
  O28      1.0000 0.92218  0.82907  0.91787  Biso   1.000  O
  O29      1.0000 0.55538  0.62883  0.74222  Biso   1.000  O
  O30      1.0000 0.55656  0.62314  0.99239  Biso   1.000  O
  O31      1.0000 0.44623  0.87976  0.50718  Biso   1.000  O
  O32      1.0000 0.44381  0.87048  0.75941  Biso   1.000  O
