data_image0
_cell_length_a       9.98359
_cell_length_b       5.21665
_cell_length_c       10.0434
_cell_angle_alpha    89.8263
_cell_angle_beta     90.3281
_cell_angle_gamma    90.1328

_symmetry_space_group_name_H-M    "P 1"
_symmetry_int_tables_number       1

loop_
  _symmetry_equiv_pos_as_xyz
  'x, y, z'

loop_
  _atom_site_label
  _atom_site_occupancy
  _atom_site_fract_x
  _atom_site_fract_y
  _atom_site_fract_z
  _atom_site_thermal_displace_type
  _atom_site_B_iso_or_equiv
  _atom_site_type_symbol
  Hf1      1.0000 0.13283  0.08741  0.11749  Biso   1.000  Hf
  Hf2      1.0000 0.13576  0.46395  0.38504  Biso   1.000  Hf
  Hf3      1.0000 0.36237  0.52946  0.12236  Biso   1.000  Hf
  Hf4      1.0000 0.36612  0.96397  0.37390  Biso   1.000  Hf
  Hf5      1.0000 0.01743  0.36575  0.21638  Biso   1.000  Hf
  Hf6      1.0000 0.03489  0.13143  0.45110  Biso   1.000  Hf
  Hf7      1.0000 0.46044  0.86408  0.19449  Biso   1.000  Hf
  Hf8      1.0000 0.46366  0.62815  0.44350  Biso   1.000  Hf
  Hf9      1.0000 0.27048  0.23893  0.25350  Biso   1.000  Hf
  Hf10     1.0000 0.27225  0.25984  0.50140  Biso   1.000  Hf
  Hf11     1.0000 0.23174  0.76397  0.49974  Biso   1.000  Hf
  Hf12     1.0000 0.22188  0.72689  0.24761  Biso   1.000  Hf
  Hf13     1.0000 0.13490  0.02728  0.62778  Biso   1.000  Hf
  Hf14     1.0000 0.14268  0.45968  0.87268  Biso   1.000  Hf
  Hf15     1.0000 0.36997  0.52831  0.62459  Biso   1.000  Hf
  Hf16     1.0000 0.37126  0.95871  0.87289  Biso   1.000  Hf
  Hf17     1.0000 0.03787  0.36238  0.69271  Biso   1.000  Hf
  Hf18     1.0000 0.03751  0.13269  0.93709  Biso   1.000  Hf
  Hf19     1.0000 0.46966  0.86123  0.69274  Biso   1.000  Hf
  Hf20     1.0000 0.46810  0.62860  0.94397  Biso   1.000  Hf
  Hf21     1.0000 0.27387  0.22781  0.74698  Biso   1.000  Hf
  Hf22     1.0000 0.28858  0.25094  0.99028  Biso   1.000  Hf
  Hf23     1.0000 0.23101  0.77281  0.99923  Biso   1.000  Hf
  Hf24     1.0000 0.23583  0.72962  0.74790  Biso   1.000  Hf
  Hf25     1.0000 0.62923  0.02999  0.12527  Biso   1.000  Hf
  Hf26     1.0000 0.63139  0.46121  0.37584  Biso   1.000  Hf
  Hf27     1.0000 0.85102  0.53173  0.12831  Biso   1.000  Hf
  Hf28     1.0000 0.86779  0.96706  0.37497  Biso   1.000  Hf
  Hf29     1.0000 0.53332  0.36030  0.19464  Biso   1.000  Hf
  Hf30     1.0000 0.53385  0.12744  0.44582  Biso   1.000  Hf
  Hf31     1.0000 0.96266  0.87607  0.19347  Biso   1.000  Hf
  Hf32     1.0000 0.96673  0.63789  0.44907  Biso   1.000  Hf
  Hf33     1.0000 0.76363  0.22902  0.25076  Biso   1.000  Hf
  Hf34     1.0000 0.77019  0.26448  0.49903  Biso   1.000  Hf
  Hf35     1.0000 0.73159  0.76379  0.49964  Biso   1.000  Hf
  Hf36     1.0000 0.72412  0.73562  0.25176  Biso   1.000  Hf
  Hf37     1.0000 0.63771  0.02762  0.62483  Biso   1.000  Hf
  Hf38     1.0000 0.63463  0.46103  0.87376  Biso   1.000  Hf
  Hf39     1.0000 0.86872  0.52899  0.62522  Biso   1.000  Hf
  Hf40     1.0000 0.86662  0.96202  0.87685  Biso   1.000  Hf
  Hf41     1.0000 0.53964  0.36320  0.69282  Biso   1.000  Hf
  Hf42     1.0000 0.54217  0.12449  0.94003  Biso   1.000  Hf
  Hf43     1.0000 0.96872  0.85663  0.70248  Biso   1.000  Hf
  Hf44     1.0000 0.97332  0.62940  0.95893  Biso   1.000  Hf
  Hf45     1.0000 0.77408  0.22762  0.74974  Biso   1.000  Hf
  Hf46     1.0000 0.77173  0.26031  0.99962  Biso   1.000  Hf
  Hf47     1.0000 0.72902  0.76081  0.99934  Biso   1.000  Hf
  Hf48     1.0000 0.73448  0.72778  0.75054  Biso   1.000  Hf
  Fe1      1.0000 0.09782  0.62392  0.10863  Biso   1.000  Fe
