data_image0
_cell_length_a       10.1088
_cell_length_b       10.334
_cell_length_c       10.0904
_cell_angle_alpha    90.7509
_cell_angle_beta     86.9729
_cell_angle_gamma    89.2676

_symmetry_space_group_name_H-M    "P 1"
_symmetry_int_tables_number       1

loop_
  _symmetry_equiv_pos_as_xyz
  'x, y, z'

loop_
  _atom_site_label
  _atom_site_occupancy
  _atom_site_fract_x
  _atom_site_fract_y
  _atom_site_fract_z
  _atom_site_thermal_displace_type
  _atom_site_B_iso_or_equiv
  _atom_site_type_symbol
  Hf1      1.0000 0.12936  0.90241  0.12890  Biso   1.000  Hf
  Hf2      1.0000 0.12889  0.25703  0.36060  Biso   1.000  Hf
  Hf3      1.0000 0.36134  0.25649  0.12334  Biso   1.000  Hf
  Hf4      1.0000 0.39021  0.01227  0.38157  Biso   1.000  Hf
  Hf5      1.0000 0.90803  0.22267  0.90087  Biso   1.000  Hf
  Hf6      1.0000 0.06203  0.07128  0.25745  Biso   1.000  Hf
  Hf7      1.0000 0.99192  0.34390  0.23473  Biso   1.000  Hf
  Hf8      1.0000 0.99365  0.43698  0.98525  Biso   1.000  Hf
  Hf9      1.0000 0.30479  0.16862  0.29614  Biso   1.000  Hf
  Hf10     1.0000 0.25885  0.06208  0.05695  Biso   1.000  Hf
  Hf11     1.0000 0.24301  0.34800  0.98773  Biso   1.000  Hf
  Hf12     1.0000 0.24760  0.40991  0.24344  Biso   1.000  Hf
  Hf13     1.0000 0.13763  0.98427  0.64879  Biso   1.000  Hf
  Hf14     1.0000 0.09865  0.28411  0.86125  Biso   1.000  Hf
  Hf15     1.0000 0.35554  0.22467  0.64075  Biso   1.000  Hf
  Hf16     1.0000 0.38094  0.99113  0.90151  Biso   1.000  Hf
  Hf17     1.0000 0.98335  0.16941  0.47315  Biso   1.000  Hf
  Hf18     1.0000 0.97339  0.09105  0.70949  Biso   1.000  Hf
  Hf19     1.0000 0.98890  0.37029  0.71259  Biso   1.000  Hf
  Hf20     1.0000 0.02703  0.41684  0.46176  Biso   1.000  Hf
  Hf21     1.0000 0.21793  0.13813  0.77898  Biso   1.000  Hf
  Hf22     1.0000 0.25346  0.08868  0.52548  Biso   1.000  Hf
  Hf23     1.0000 0.26155  0.34554  0.50017  Biso   1.000  Hf
  Hf24     1.0000 0.23547  0.38938  0.74054  Biso   1.000  Hf
  Hf25     1.0000 0.12671  0.50771  0.12292  Biso   1.000  Hf
  Hf26     1.0000 0.13940  0.75337  0.39708  Biso   1.000  Hf
  Hf27     1.0000 0.39562  0.75294  0.14480  Biso   1.000  Hf
  Hf28     1.0000 0.38340  0.47248  0.38078  Biso   1.000  Hf
  Hf29     1.0000 0.02887  0.74878  0.02829  Biso   1.000  Hf
  Hf30     1.0000 0.96621  0.58966  0.22758  Biso   1.000  Hf
  Hf31     1.0000 0.99524  0.83718  0.27276  Biso   1.000  Hf
  Hf32     1.0000 0.00550  0.00215  0.01194  Biso   1.000  Hf
  Hf33     1.0000 0.20786  0.67929  0.20829  Biso   1.000  Hf
  Hf34     1.0000 0.23083  0.58626  0.96644  Biso   1.000  Hf
  Hf35     1.0000 0.27654  0.82737  0.99779  Biso   1.000  Hf
  Hf36     1.0000 0.26737  0.89393  0.27511  Biso   1.000  Hf
  Hf37     1.0000 0.12457  0.50302  0.60740  Biso   1.000  Hf
  Hf38     1.0000 0.14512  0.73590  0.85962  Biso   1.000  Hf
  Hf39     1.0000 0.39808  0.75268  0.63925  Biso   1.000  Hf
  Hf40     1.0000 0.36722  0.48239  0.85552  Biso   1.000  Hf
  Hf41     1.0000 0.00583  0.65595  0.51853  Biso   1.000  Hf
  Hf42     1.0000 0.00834  0.60997  0.76801  Biso   1.000  Hf
  Hf43     1.0000 0.00692  0.85784  0.77190  Biso   1.000  Hf
  Hf44     1.0000 0.00853  0.90537  0.51335  Biso   1.000  Hf
  Hf45     1.0000 0.25650  0.63192  0.71624  Biso   1.000  Hf
  Hf46     1.0000 0.24045  0.59257  0.45724  Biso   1.000  Hf
  Hf47     1.0000 0.25229  0.83801  0.52854  Biso   1.000  Hf
  Hf48     1.0000 0.26088  0.88387  0.76836  Biso   1.000  Hf
  Hf49     1.0000 0.65162  0.98983  0.14459  Biso   1.000  Hf
  Hf50     1.0000 0.63242  0.24266  0.37319  Biso   1.000  Hf
  Hf51     1.0000 0.85651  0.26975  0.10078  Biso   1.000  Hf
  Hf52     1.0000 0.90337  0.01076  0.37551  Biso   1.000  Hf
  Hf53     1.0000 0.47194  0.15791  0.97839  Biso   1.000  Hf
  Hf54     1.0000 0.53659  0.09878  0.26353  Biso   1.000  Hf
  Hf55     1.0000 0.50436  0.34690  0.24151  Biso   1.000  Hf
  Hf56     1.0000 0.48466  0.40784  0.99703  Biso   1.000  Hf
  Hf57     1.0000 0.78963  0.14058  0.24538  Biso   1.000  Hf
  Hf58     1.0000 0.72226  0.11926  0.00642  Biso   1.000  Hf
  Hf59     1.0000 0.72835  0.37932  0.99249  Biso   1.000  Hf
  Hf60     1.0000 0.74376  0.39390  0.23944  Biso   1.000  Hf
  Hf61     1.0000 0.62636  0.99679  0.63393  Biso   1.000  Hf
  Hf62     1.0000 0.61283  0.26124  0.88224  Biso   1.000  Hf
  Hf63     1.0000 0.85969  0.23646  0.62870  Biso   1.000  Hf
  Hf64     1.0000 0.86978  0.02540  0.87675  Biso   1.000  Hf
  Hf65     1.0000 0.50046  0.15002  0.50430  Biso   1.000  Hf
  Hf66     1.0000 0.46288  0.07614  0.73589  Biso   1.000  Hf
  Hf67     1.0000 0.48285  0.33356  0.74961  Biso   1.000  Hf
  Hf68     1.0000 0.52554  0.39235  0.48754  Biso   1.000  Hf
  Hf69     1.0000 0.71528  0.14540  0.74454  Biso   1.000  Hf
  Hf70     1.0000 0.74702  0.09463  0.49680  Biso   1.000  Hf
  Hf71     1.0000 0.76717  0.34545  0.48973  Biso   1.000  Hf
  Hf72     1.0000 0.73507  0.39312  0.74118  Biso   1.000  Hf
  Hf73     1.0000 0.61108  0.50549  0.12384  Biso   1.000  Hf
  Hf74     1.0000 0.63488  0.75684  0.39950  Biso   1.000  Hf
  Hf75     1.0000 0.86030  0.74098  0.14760  Biso   1.000  Hf
  Hf76     1.0000 0.87271  0.47899  0.36541  Biso   1.000  Hf
  Hf77     1.0000 0.52128  0.65718  0.00877  Biso   1.000  Hf
  Hf78     1.0000 0.45477  0.59205  0.23843  Biso   1.000  Hf
  Hf79     1.0000 0.51559  0.85166  0.26385  Biso   1.000  Hf
  Hf80     1.0000 0.51993  0.90661  0.01665  Biso   1.000  Hf
  Hf81     1.0000 0.70674  0.64544  0.24280  Biso   1.000  Hf
  Hf82     1.0000 0.77313  0.61840  0.99980  Biso   1.000  Hf
  Hf83     1.0000 0.77329  0.86577  0.01220  Biso   1.000  Hf
  Hf84     1.0000 0.76253  0.88883  0.27206  Biso   1.000  Hf
  Hf85     1.0000 0.62831  0.49968  0.61092  Biso   1.000  Hf
  Hf86     1.0000 0.64955  0.76264  0.89334  Biso   1.000  Hf
  Hf87     1.0000 0.88807  0.76565  0.64364  Biso   1.000  Hf
  Hf88     1.0000 0.85861  0.49941  0.85355  Biso   1.000  Hf
  Hf89     1.0000 0.49874  0.63957  0.49675  Biso   1.000  Hf
  Hf90     1.0000 0.49950  0.58979  0.74397  Biso   1.000  Hf
  Hf91     1.0000 0.51400  0.84069  0.76863  Biso   1.000  Hf
  Hf92     1.0000 0.50267  0.89351  0.51260  Biso   1.000  Hf
  Hf93     1.0000 0.75477  0.64803  0.74821  Biso   1.000  Hf
  Hf94     1.0000 0.75077  0.59878  0.48683  Biso   1.000  Hf
  Hf95     1.0000 0.75087  0.84597  0.52655  Biso   1.000  Hf
  Hf96     1.0000 0.75383  0.90415  0.76527  Biso   1.000  Hf
  Ga1      1.0000 0.10190  0.16519  0.09577  Biso   1.000  Ga
