data_image0
_cell_length_a       10.016
_cell_length_b       10.1749
_cell_length_c       10.016
_cell_angle_alpha    90
_cell_angle_beta     90
_cell_angle_gamma    90

_symmetry_space_group_name_H-M    "P 1"
_symmetry_int_tables_number       1

loop_
  _symmetry_equiv_pos_as_xyz
  'x, y, z'

loop_
  _atom_site_label
  _atom_site_occupancy
  _atom_site_fract_x
  _atom_site_fract_y
  _atom_site_fract_z
  _atom_site_thermal_displace_type
  _atom_site_B_iso_or_equiv
  _atom_site_type_symbol
  Ga1      1.0000 0.12491  0.00005  0.12491  Biso   1.000  Ga
  Hf1      1.0000 0.12707  0.25070  0.37626  Biso   1.000  Hf
  Hf2      1.0000 0.37626  0.25070  0.12707  Biso   1.000  Hf
  Hf3      1.0000 0.37216  0.00125  0.37216  Biso   1.000  Hf
  Hf4      1.0000 0.98148  0.15709  0.98148  Biso   1.000  Hf
  Hf5      1.0000 0.01159  0.09407  0.23823  Biso   1.000  Hf
  Hf6      1.0000 0.00177  0.34661  0.24805  Biso   1.000  Hf
  Hf7      1.0000 0.99923  0.40314  0.99923  Biso   1.000  Hf
  Hf8      1.0000 0.26834  0.15709  0.26834  Biso   1.000  Hf
  Hf9      1.0000 0.23823  0.09407  0.01159  Biso   1.000  Hf
  Hf10     1.0000 0.24805  0.34661  0.00177  Biso   1.000  Hf
  Hf11     1.0000 0.25059  0.40314  0.25059  Biso   1.000  Hf
  Hf12     1.0000 0.12491  0.00005  0.62491  Biso   1.000  Hf
  Hf13     1.0000 0.12275  0.25070  0.87356  Biso   1.000  Hf
  Hf14     1.0000 0.37486  0.24778  0.62635  Biso   1.000  Hf
  Hf15     1.0000 0.37216  0.99886  0.87765  Biso   1.000  Hf
  Hf16     1.0000 0.99382  0.14656  0.48880  Biso   1.000  Hf
  Hf17     1.0000 0.00142  0.10377  0.74166  Biso   1.000  Hf
  Hf18     1.0000 0.99787  0.35369  0.74866  Biso   1.000  Hf
  Hf19     1.0000 0.00195  0.39664  0.49871  Biso   1.000  Hf
  Hf20     1.0000 0.25600  0.14656  0.76102  Biso   1.000  Hf
  Hf21     1.0000 0.24839  0.10377  0.50816  Biso   1.000  Hf
  Hf22     1.0000 0.25195  0.35369  0.50116  Biso   1.000  Hf
  Hf23     1.0000 0.24786  0.39664  0.75111  Biso   1.000  Hf
  Hf24     1.0000 0.12491  0.50005  0.12491  Biso   1.000  Hf
  Hf25     1.0000 0.12275  0.74941  0.37626  Biso   1.000  Hf
  Hf26     1.0000 0.37626  0.74940  0.12275  Biso   1.000  Hf
  Hf27     1.0000 0.37762  0.50081  0.37761  Biso   1.000  Hf
  Hf28     1.0000 0.00176  0.65349  0.00176  Biso   1.000  Hf
  Hf29     1.0000 0.99923  0.59696  0.25059  Biso   1.000  Hf
  Hf30     1.0000 0.98147  0.84302  0.26834  Biso   1.000  Hf
  Hf31     1.0000 0.01159  0.90604  0.01159  Biso   1.000  Hf
  Hf32     1.0000 0.24805  0.65350  0.24805  Biso   1.000  Hf
  Hf33     1.0000 0.25059  0.59696  0.99923  Biso   1.000  Hf
  Hf34     1.0000 0.26834  0.84302  0.98148  Biso   1.000  Hf
  Hf35     1.0000 0.23823  0.90604  0.23823  Biso   1.000  Hf
  Hf36     1.0000 0.12491  0.50005  0.62491  Biso   1.000  Hf
  Hf37     1.0000 0.12707  0.74940  0.87356  Biso   1.000  Hf
  Hf38     1.0000 0.37486  0.75233  0.62346  Biso   1.000  Hf
  Hf39     1.0000 0.37762  0.49930  0.87220  Biso   1.000  Hf
  Hf40     1.0000 0.99787  0.64642  0.50116  Biso   1.000  Hf
  Hf41     1.0000 0.00195  0.60347  0.75111  Biso   1.000  Hf
  Hf42     1.0000 0.99382  0.85354  0.76102  Biso   1.000  Hf
  Hf43     1.0000 0.00142  0.89634  0.50816  Biso   1.000  Hf
  Hf44     1.0000 0.25195  0.64642  0.74866  Biso   1.000  Hf
  Hf45     1.0000 0.24786  0.60347  0.49871  Biso   1.000  Hf
  Hf46     1.0000 0.25599  0.85354  0.48880  Biso   1.000  Hf
  Hf47     1.0000 0.24839  0.89634  0.74165  Biso   1.000  Hf
  Hf48     1.0000 0.62491  0.00005  0.12491  Biso   1.000  Hf
  Hf49     1.0000 0.62636  0.24778  0.37486  Biso   1.000  Hf
  Hf50     1.0000 0.87356  0.25070  0.12275  Biso   1.000  Hf
  Hf51     1.0000 0.87765  0.99886  0.37216  Biso   1.000  Hf
  Hf52     1.0000 0.48880  0.14656  0.99382  Biso   1.000  Hf
  Hf53     1.0000 0.50816  0.10377  0.24839  Biso   1.000  Hf
  Hf54     1.0000 0.50116  0.35369  0.25195  Biso   1.000  Hf
  Hf55     1.0000 0.49871  0.39664  0.00196  Biso   1.000  Hf
  Hf56     1.0000 0.76102  0.14657  0.25600  Biso   1.000  Hf
  Hf57     1.0000 0.74165  0.10377  0.00142  Biso   1.000  Hf
  Hf58     1.0000 0.74866  0.35369  0.99787  Biso   1.000  Hf
  Hf59     1.0000 0.75111  0.39664  0.24786  Biso   1.000  Hf
  Hf60     1.0000 0.62491  0.00005  0.62491  Biso   1.000  Hf
  Hf61     1.0000 0.62346  0.24778  0.87495  Biso   1.000  Hf
  Hf62     1.0000 0.87495  0.24778  0.62346  Biso   1.000  Hf
  Hf63     1.0000 0.87765  0.00125  0.87765  Biso   1.000  Hf
  Hf64     1.0000 0.49560  0.14741  0.49560  Biso   1.000  Hf
  Hf65     1.0000 0.50210  0.10255  0.74772  Biso   1.000  Hf
  Hf66     1.0000 0.49790  0.35322  0.75192  Biso   1.000  Hf
  Hf67     1.0000 0.50151  0.39634  0.50152  Biso   1.000  Hf
  Hf68     1.0000 0.75421  0.14741  0.75422  Biso   1.000  Hf
  Hf69     1.0000 0.74771  0.10255  0.50210  Biso   1.000  Hf
  Hf70     1.0000 0.75192  0.35322  0.49790  Biso   1.000  Hf
  Hf71     1.0000 0.74830  0.39634  0.74830  Biso   1.000  Hf
  Hf72     1.0000 0.62491  0.50005  0.12491  Biso   1.000  Hf
  Hf73     1.0000 0.62346  0.75233  0.37486  Biso   1.000  Hf
  Hf74     1.0000 0.87356  0.74940  0.12707  Biso   1.000  Hf
  Hf75     1.0000 0.87220  0.49930  0.37762  Biso   1.000  Hf
  Hf76     1.0000 0.50116  0.64642  0.99787  Biso   1.000  Hf
  Hf77     1.0000 0.49871  0.60347  0.24786  Biso   1.000  Hf
  Hf78     1.0000 0.48880  0.85354  0.25599  Biso   1.000  Hf
  Hf79     1.0000 0.50816  0.89634  0.00143  Biso   1.000  Hf
  Hf80     1.0000 0.74866  0.64642  0.25195  Biso   1.000  Hf
  Hf81     1.0000 0.75111  0.60347  0.00195  Biso   1.000  Hf
  Hf82     1.0000 0.76102  0.85354  0.99382  Biso   1.000  Hf
  Hf83     1.0000 0.74165  0.89633  0.24839  Biso   1.000  Hf
  Hf84     1.0000 0.62491  0.50005  0.62491  Biso   1.000  Hf
  Hf85     1.0000 0.62636  0.75233  0.87495  Biso   1.000  Hf
  Hf86     1.0000 0.87495  0.75233  0.62635  Biso   1.000  Hf
  Hf87     1.0000 0.87220  0.50081  0.87220  Biso   1.000  Hf
  Hf88     1.0000 0.49790  0.64689  0.49790  Biso   1.000  Hf
  Hf89     1.0000 0.50152  0.60377  0.74830  Biso   1.000  Hf
  Hf90     1.0000 0.49560  0.85270  0.75421  Biso   1.000  Hf
  Hf91     1.0000 0.50210  0.89756  0.50210  Biso   1.000  Hf
  Hf92     1.0000 0.75192  0.64689  0.75192  Biso   1.000  Hf
  Hf93     1.0000 0.74830  0.60377  0.50152  Biso   1.000  Hf
  Hf94     1.0000 0.75421  0.85270  0.49560  Biso   1.000  Hf
  Hf95     1.0000 0.74771  0.89756  0.74771  Biso   1.000  Hf
