data_image0
_cell_length_a       5.04527
_cell_length_b       10.41
_cell_length_c       10.0961
_cell_angle_alpha    89.267
_cell_angle_beta     90.5855
_cell_angle_gamma    92.012

_symmetry_space_group_name_H-M    "P 1"
_symmetry_int_tables_number       1

loop_
  _symmetry_equiv_pos_as_xyz
  'x, y, z'

loop_
  _atom_site_label
  _atom_site_occupancy
  _atom_site_fract_x
  _atom_site_fract_y
  _atom_site_fract_z
  _atom_site_thermal_displace_type
  _atom_site_B_iso_or_equiv
  _atom_site_type_symbol
  Hf1      1.0000 0.29633  0.00178  0.11263  Biso   1.000  Hf
  Hf2      1.0000 0.25275  0.22801  0.41183  Biso   1.000  Hf
  Hf3      1.0000 0.64887  0.25907  0.14505  Biso   1.000  Hf
  Hf4      1.0000 0.74633  0.49312  0.38658  Biso   1.000  Hf
  Hf5      1.0000 0.95668  0.17631  0.25723  Biso   1.000  Hf
  Hf6      1.0000 0.08587  0.05513  0.46099  Biso   1.000  Hf
  Hf7      1.0000 0.85702  0.43923  0.20537  Biso   1.000  Hf
  Hf8      1.0000 0.93894  0.32922  0.46015  Biso   1.000  Hf
  Hf9      1.0000 0.47251  0.10987  0.26716  Biso   1.000  Hf
  Hf10     1.0000 0.57077  0.13724  0.51007  Biso   1.000  Hf
  Hf11     1.0000 0.46797  0.38734  0.49732  Biso   1.000  Hf
  Hf12     1.0000 0.34560  0.35511  0.24274  Biso   1.000  Hf
  Hf13     1.0000 0.30522  0.01135  0.62975  Biso   1.000  Hf
  Hf14     1.0000 0.26917  0.23386  0.85734  Biso   1.000  Hf
  Hf15     1.0000 0.76202  0.27519  0.63976  Biso   1.000  Hf
  Hf16     1.0000 0.72966  0.48343  0.86594  Biso   1.000  Hf
  Hf17     1.0000 0.12056  0.18795  0.66525  Biso   1.000  Hf
  Hf18     1.0000 0.12308  0.05591  0.92706  Biso   1.000  Hf
  Hf19     1.0000 0.90960  0.46179  0.67300  Biso   1.000  Hf
  Hf20     1.0000 0.90642  0.30514  0.84929  Biso   1.000  Hf
  Hf21     1.0000 0.55771  0.11879  0.75970  Biso   1.000  Hf
  Hf22     1.0000 0.62574  0.11070  0.01584  Biso   1.000  Hf
  Hf23     1.0000 0.47727  0.37631  0.99482  Biso   1.000  Hf
  Hf24     1.0000 0.44644  0.37740  0.74296  Biso   1.000  Hf
  Hf25     1.0000 0.23826  0.52208  0.12868  Biso   1.000  Hf
  Hf26     1.0000 0.28170  0.74188  0.37700  Biso   1.000  Hf
  Hf27     1.0000 0.73535  0.76019  0.12616  Biso   1.000  Hf
  Hf28     1.0000 0.75854  0.99395  0.36696  Biso   1.000  Hf
  Hf29     1.0000 0.06695  0.68188  0.19779  Biso   1.000  Hf
  Hf30     1.0000 0.08429  0.57554  0.44333  Biso   1.000  Hf
  Hf31     1.0000 0.94820  0.93397  0.18993  Biso   1.000  Hf
  Hf32     1.0000 0.94127  0.81904  0.44114  Biso   1.000  Hf
  Hf33     1.0000 0.52339  0.61520  0.25506  Biso   1.000  Hf
  Hf34     1.0000 0.54650  0.64108  0.50155  Biso   1.000  Hf
  Hf35     1.0000 0.48570  0.88901  0.49668  Biso   1.000  Hf
  Hf36     1.0000 0.48359  0.86436  0.24463  Biso   1.000  Hf
  Hf37     1.0000 0.27652  0.52196  0.62108  Biso   1.000  Hf
  Hf38     1.0000 0.27715  0.73178  0.87361  Biso   1.000  Hf
  Hf39     1.0000 0.75624  0.77205  0.62386  Biso   1.000  Hf
  Hf40     1.0000 0.75936  0.98006  0.87723  Biso   1.000  Hf
  Hf41     1.0000 0.09024  0.69096  0.69341  Biso   1.000  Hf
  Hf42     1.0000 0.06439  0.56011  0.94712  Biso   1.000  Hf
  Hf43     1.0000 0.95411  0.93566  0.69886  Biso   1.000  Hf
  Hf44     1.0000 0.94657  0.81087  0.94947  Biso   1.000  Hf
  Hf45     1.0000 0.54720  0.62221  0.75199  Biso   1.000  Hf
  Hf46     1.0000 0.52863  0.62801  0.00362  Biso   1.000  Hf
  Hf47     1.0000 0.47967  0.87264  0.99624  Biso   1.000  Hf
  Hf48     1.0000 0.48796  0.86620  0.75026  Biso   1.000  Hf
  Ge1      1.0000 0.13626  0.25123  0.11324  Biso   1.000  Ge
