data_image0
_cell_length_a       9.9778
_cell_length_b       10.4111
_cell_length_c       10.0649
_cell_angle_alpha    89.7621
_cell_angle_beta     90.857
_cell_angle_gamma    90.5739

_symmetry_space_group_name_H-M    "P 1"
_symmetry_int_tables_number       1

loop_
  _symmetry_equiv_pos_as_xyz
  'x, y, z'

loop_
  _atom_site_label
  _atom_site_occupancy
  _atom_site_fract_x
  _atom_site_fract_y
  _atom_site_fract_z
  _atom_site_thermal_displace_type
  _atom_site_B_iso_or_equiv
  _atom_site_type_symbol
  Hf1      1.0000 0.13933  0.01584  0.11766  Biso   1.000  Hf
  Hf2      1.0000 0.13067  0.22809  0.39328  Biso   1.000  Hf
  Hf3      1.0000 0.36803  0.26141  0.11763  Biso   1.000  Hf
  Hf4      1.0000 0.37010  0.48531  0.37353  Biso   1.000  Hf
  Hf5      1.0000 0.00761  0.17486  0.22726  Biso   1.000  Hf
  Hf6      1.0000 0.04164  0.05695  0.44662  Biso   1.000  Hf
  Hf7      1.0000 0.45518  0.43341  0.19362  Biso   1.000  Hf
  Hf8      1.0000 0.46131  0.31532  0.44335  Biso   1.000  Hf
  Hf9      1.0000 0.26544  0.11665  0.25100  Biso   1.000  Hf
  Hf10     1.0000 0.27705  0.12852  0.50050  Biso   1.000  Hf
  Hf11     1.0000 0.23133  0.38370  0.49280  Biso   1.000  Hf
  Hf12     1.0000 0.20434  0.35606  0.23531  Biso   1.000  Hf
  Hf13     1.0000 0.13892  0.00775  0.62483  Biso   1.000  Hf
  Hf14     1.0000 0.14118  0.22509  0.85540  Biso   1.000  Hf
  Hf15     1.0000 0.37126  0.26604  0.62449  Biso   1.000  Hf
  Hf16     1.0000 0.36988  0.48580  0.87202  Biso   1.000  Hf
  Hf17     1.0000 0.05247  0.18108  0.66787  Biso   1.000  Hf
  Hf18     1.0000 0.04430  0.06003  0.93490  Biso   1.000  Hf
  Hf19     1.0000 0.46347  0.43502  0.69221  Biso   1.000  Hf
  Hf20     1.0000 0.47232  0.31591  0.94287  Biso   1.000  Hf
  Hf21     1.0000 0.27670  0.11308  0.74568  Biso   1.000  Hf
  Hf22     1.0000 0.29668  0.11888  0.98992  Biso   1.000  Hf
  Hf23     1.0000 0.23979  0.38927  0.99250  Biso   1.000  Hf
  Hf24     1.0000 0.23102  0.36768  0.74164  Biso   1.000  Hf
  Hf25     1.0000 0.12250  0.52502  0.12408  Biso   1.000  Hf
  Hf26     1.0000 0.13429  0.73544  0.37540  Biso   1.000  Hf
  Hf27     1.0000 0.36423  0.76470  0.12677  Biso   1.000  Hf
  Hf28     1.0000 0.36654  0.98330  0.37465  Biso   1.000  Hf
  Hf29     1.0000 0.03506  0.68773  0.19359  Biso   1.000  Hf
  Hf30     1.0000 0.03848  0.57045  0.44131  Biso   1.000  Hf
  Hf31     1.0000 0.46452  0.93352  0.19554  Biso   1.000  Hf
  Hf32     1.0000 0.46541  0.81544  0.44466  Biso   1.000  Hf
  Hf33     1.0000 0.26681  0.61453  0.25000  Biso   1.000  Hf
  Hf34     1.0000 0.27218  0.63306  0.49873  Biso   1.000  Hf
  Hf35     1.0000 0.23330  0.88034  0.49824  Biso   1.000  Hf
  Hf36     1.0000 0.23171  0.86603  0.24814  Biso   1.000  Hf
  Hf37     1.0000 0.13574  0.51862  0.62023  Biso   1.000  Hf
  Hf38     1.0000 0.13389  0.73489  0.87408  Biso   1.000  Hf
  Hf39     1.0000 0.37044  0.76466  0.62551  Biso   1.000  Hf
  Hf40     1.0000 0.37469  0.97791  0.87450  Biso   1.000  Hf
  Hf41     1.0000 0.04106  0.68767  0.69202  Biso   1.000  Hf
  Hf42     1.0000 0.03438  0.56326  0.94213  Biso   1.000  Hf
  Hf43     1.0000 0.47028  0.93100  0.69381  Biso   1.000  Hf
  Hf44     1.0000 0.46860  0.81384  0.95017  Biso   1.000  Hf
  Hf45     1.0000 0.27131  0.61722  0.74956  Biso   1.000  Hf
  Hf46     1.0000 0.26742  0.63497  0.99954  Biso   1.000  Hf
  Hf47     1.0000 0.23169  0.88025  0.99890  Biso   1.000  Hf
  Hf48     1.0000 0.23651  0.86384  0.74978  Biso   1.000  Hf
  Hf49     1.0000 0.63251  0.01581  0.12728  Biso   1.000  Hf
  Hf50     1.0000 0.63183  0.23050  0.38871  Biso   1.000  Hf
  Hf51     1.0000 0.83828  0.27323  0.14993  Biso   1.000  Hf
  Hf52     1.0000 0.86402  0.48585  0.39011  Biso   1.000  Hf
  Hf53     1.0000 0.53481  0.18264  0.19534  Biso   1.000  Hf
  Hf54     1.0000 0.53669  0.06436  0.44941  Biso   1.000  Hf
  Hf55     1.0000 0.94519  0.44666  0.21108  Biso   1.000  Hf
  Hf56     1.0000 0.96302  0.31661  0.45093  Biso   1.000  Hf
  Hf57     1.0000 0.75933  0.11821  0.26109  Biso   1.000  Hf
  Hf58     1.0000 0.77649  0.13259  0.50831  Biso   1.000  Hf
  Hf59     1.0000 0.72679  0.37835  0.50891  Biso   1.000  Hf
  Hf60     1.0000 0.71127  0.37483  0.26304  Biso   1.000  Hf
  Hf61     1.0000 0.64027  0.01659  0.62926  Biso   1.000  Hf
  Hf62     1.0000 0.64056  0.23244  0.87848  Biso   1.000  Hf
  Hf63     1.0000 0.87400  0.27145  0.64032  Biso   1.000  Hf
  Hf64     1.0000 0.86651  0.48119  0.86978  Biso   1.000  Hf
  Hf65     1.0000 0.54066  0.18409  0.69407  Biso   1.000  Hf
  Hf66     1.0000 0.54916  0.06182  0.94027  Biso   1.000  Hf
  Hf67     1.0000 0.95223  0.45510  0.66883  Biso   1.000  Hf
  Hf68     1.0000 0.95433  0.30464  0.85367  Biso   1.000  Hf
  Hf69     1.0000 0.77453  0.11764  0.75665  Biso   1.000  Hf
  Hf70     1.0000 0.77846  0.13583  0.01028  Biso   1.000  Hf
  Hf71     1.0000 0.73990  0.38291  0.00680  Biso   1.000  Hf
  Hf72     1.0000 0.72121  0.37326  0.75416  Biso   1.000  Hf
  Hf73     1.0000 0.63134  0.52046  0.13045  Biso   1.000  Hf
  Hf74     1.0000 0.63545  0.73609  0.37854  Biso   1.000  Hf
  Hf75     1.0000 0.86352  0.76823  0.12932  Biso   1.000  Hf
  Hf76     1.0000 0.86869  0.98526  0.37686  Biso   1.000  Hf
  Hf77     1.0000 0.53300  0.68188  0.19926  Biso   1.000  Hf
  Hf78     1.0000 0.53463  0.56634  0.44728  Biso   1.000  Hf
  Hf79     1.0000 0.96580  0.93597  0.19239  Biso   1.000  Hf
  Hf80     1.0000 0.96443  0.81562  0.44573  Biso   1.000  Hf
  Hf81     1.0000 0.76733  0.62192  0.25722  Biso   1.000  Hf
  Hf82     1.0000 0.76757  0.63474  0.50570  Biso   1.000  Hf
  Hf83     1.0000 0.73304  0.88419  0.50194  Biso   1.000  Hf
  Hf84     1.0000 0.72982  0.86959  0.25200  Biso   1.000  Hf
  Hf85     1.0000 0.63574  0.51660  0.62941  Biso   1.000  Hf
  Hf86     1.0000 0.63731  0.73387  0.87904  Biso   1.000  Hf
  Hf87     1.0000 0.86884  0.76833  0.62883  Biso   1.000  Hf
  Hf88     1.0000 0.86770  0.98265  0.88045  Biso   1.000  Hf
  Hf89     1.0000 0.53718  0.68191  0.69948  Biso   1.000  Hf
  Hf90     1.0000 0.53671  0.56667  0.94871  Biso   1.000  Hf
  Hf91     1.0000 0.96743  0.93415  0.69955  Biso   1.000  Hf
  Hf92     1.0000 0.96419  0.81261  0.94607  Biso   1.000  Hf
  Hf93     1.0000 0.77261  0.62068  0.75471  Biso   1.000  Hf
  Hf94     1.0000 0.76860  0.63258  0.00553  Biso   1.000  Hf
  Hf95     1.0000 0.73183  0.88282  0.00322  Biso   1.000  Hf
  Hf96     1.0000 0.73332  0.86769  0.75268  Biso   1.000  Hf
  Ge1      1.0000 0.09047  0.27499  0.09765  Biso   1.000  Ge
