data_image0
_cell_length_a       10.0279
_cell_length_b       10.239
_cell_length_c       5.22406
_cell_angle_alpha    90.1503
_cell_angle_beta     90.1179
_cell_angle_gamma    89.5634

_symmetry_space_group_name_H-M    "P 1"
_symmetry_int_tables_number       1

loop_
  _symmetry_equiv_pos_as_xyz
  'x, y, z'

loop_
  _atom_site_label
  _atom_site_occupancy
  _atom_site_fract_x
  _atom_site_fract_y
  _atom_site_fract_z
  _atom_site_thermal_displace_type
  _atom_site_B_iso_or_equiv
  _atom_site_type_symbol
  H1       1.0000 0.07303  0.91138  0.37914  Biso   1.000  H
  Hf1      1.0000 0.15876  0.23960  0.83809  Biso   1.000  Hf
  Hf2      1.0000 0.36013  0.26915  0.34086  Biso   1.000  Hf
  Hf3      1.0000 0.36437  0.48456  0.84197  Biso   1.000  Hf
  Hf4      1.0000 0.63464  0.02293  0.15165  Biso   1.000  Hf
  Hf5      1.0000 0.63843  0.23095  0.65509  Biso   1.000  Hf
  Hf6      1.0000 0.85599  0.27495  0.14787  Biso   1.000  Hf
  Hf7      1.0000 0.86523  0.47988  0.65437  Biso   1.000  Hf
  O1       1.0000 0.01861  0.13359  0.09033  Biso   1.000  O
  O2       1.0000 0.02688  0.08174  0.84218  Biso   1.000  O
  O3       1.0000 0.46821  0.41873  0.16728  Biso   1.000  O
  O4       1.0000 0.47063  0.33878  0.66724  Biso   1.000  O
  O5       1.0000 0.27493  0.13382  0.58983  Biso   1.000  O
  O6       1.0000 0.29406  0.14327  0.06467  Biso   1.000  O
  O7       1.0000 0.22842  0.38176  0.58883  Biso   1.000  O
  O8       1.0000 0.22335  0.38076  0.09085  Biso   1.000  O
  O9       1.0000 0.53883  0.17098  0.32752  Biso   1.000  O
  O10      1.0000 0.53416  0.08552  0.82241  Biso   1.000  O
  O11      1.0000 0.97485  0.40413  0.33567  Biso   1.000  O
  O12      1.0000 0.97089  0.33431  0.83318  Biso   1.000  O
  O13      1.0000 0.77306  0.12641  0.91003  Biso   1.000  O
  O14      1.0000 0.78585  0.12940  0.41334  Biso   1.000  O
  O15      1.0000 0.72620  0.37670  0.90823  Biso   1.000  O
  O16      1.0000 0.72563  0.37984  0.40636  Biso   1.000  O
  Hf8      1.0000 0.14137  0.52588  0.34226  Biso   1.000  Hf
  Hf9      1.0000 0.14544  0.73528  0.83752  Biso   1.000  Hf
  Hf10     1.0000 0.35514  0.78207  0.33614  Biso   1.000  Hf
  Hf11     1.0000 0.35078  0.98304  0.83325  Biso   1.000  Hf
  Hf12     1.0000 0.63747  0.52558  0.15817  Biso   1.000  Hf
  Hf13     1.0000 0.63574  0.73245  0.65011  Biso   1.000  Hf
  Hf14     1.0000 0.86278  0.77018  0.15540  Biso   1.000  Hf
  Hf15     1.0000 0.85523  0.97880  0.66727  Biso   1.000  Hf
  O17      1.0000 0.03286  0.66718  0.16737  Biso   1.000  O
  O18      1.0000 0.03279  0.58720  0.66230  Biso   1.000  O
  O19      1.0000 0.46937  0.91876  0.15772  Biso   1.000  O
  O20      1.0000 0.46993  0.84456  0.65471  Biso   1.000  O
  O21      1.0000 0.27925  0.62641  0.58602  Biso   1.000  O
  O22      1.0000 0.27632  0.62574  0.08995  Biso   1.000  O
  O23      1.0000 0.22040  0.87170  0.58222  Biso   1.000  O
  O24      1.0000 0.23352  0.87050  0.06760  Biso   1.000  O
  O25      1.0000 0.53304  0.67055  0.32819  Biso   1.000  O
  O26      1.0000 0.53443  0.58911  0.82963  Biso   1.000  O
  O27      1.0000 0.97354  0.91464  0.35971  Biso   1.000  O
  O28      1.0000 0.96680  0.83727  0.83844  Biso   1.000  O
  O29      1.0000 0.77735  0.62626  0.91028  Biso   1.000  O
  O30      1.0000 0.77756  0.62753  0.40932  Biso   1.000  O
  O31      1.0000 0.72441  0.87635  0.90440  Biso   1.000  O
  O32      1.0000 0.72937  0.87981  0.40503  Biso   1.000  O
