data_image0
_cell_length_a       10.0039
_cell_length_b       10.3884
_cell_length_c       4.99499
_cell_angle_alpha    89.4135
_cell_angle_beta     89.6127
_cell_angle_gamma    89.1551

_symmetry_space_group_name_H-M    "P 1"
_symmetry_int_tables_number       1

loop_
  _symmetry_equiv_pos_as_xyz
  'x, y, z'

loop_
  _atom_site_label
  _atom_site_occupancy
  _atom_site_fract_x
  _atom_site_fract_y
  _atom_site_fract_z
  _atom_site_thermal_displace_type
  _atom_site_B_iso_or_equiv
  _atom_site_type_symbol
  H1       1.0000 0.05041  0.94103  0.33476  Biso   1.000  H 
  Hf1      1.0000 0.15369  0.24714  0.76700  Biso   1.000  Hf
  Hf2      1.0000 0.36987  0.26869  0.25639  Biso   1.000  Hf
  Hf3      1.0000 0.37164  0.48915  0.75377  Biso   1.000  Hf
  Hf4      1.0000 0.02653  0.17694  0.46079  Biso   1.000  Hf
  Hf5      1.0000 0.02889  0.09089  0.68565  Biso   1.000  Hf
  Hf6      1.0000 0.46716  0.43678  0.38965  Biso   1.000  Hf
  Hf7      1.0000 0.46740  0.31851  0.88283  Biso   1.000  Hf
  Hf8      1.0000 0.29233  0.13974  0.52872  Biso   1.000  Hf
  Hf9      1.0000 0.27264  0.13704  0.01093  Biso   1.000  Hf
  Hf10     1.0000 0.23769  0.38986  0.00807  Biso   1.000  Hf
  Hf11     1.0000 0.23183  0.37635  0.50335  Biso   1.000  Hf
  Hf12     1.0000 0.13518  0.52085  0.25830  Biso   1.000  Hf
  Hf13     1.0000 0.13910  0.73649  0.75843  Biso   1.000  Hf
  Hf14     1.0000 0.36269  0.77326  0.25489  Biso   1.000  Hf
  Hf15     1.0000 0.35677  0.98594  0.75730  Biso   1.000  Hf
  Hf16     1.0000 0.03669  0.68648  0.38898  Biso   1.000  Hf
  Hf17     1.0000 0.03542  0.56810  0.89590  Biso   1.000  Hf
  Hf18     1.0000 0.46546  0.93654  0.39508  Biso   1.000  Hf
  Hf19     1.0000 0.46705  0.81968  0.89654  Biso   1.000  Hf
  Hf20     1.0000 0.27086  0.62012  0.50251  Biso   1.000  Hf
  Hf21     1.0000 0.27363  0.63274  0.00511  Biso   1.000  Hf
  Hf22     1.0000 0.22979  0.87724  0.00259  Biso   1.000  Hf
  Hf23     1.0000 0.23482  0.86692  0.51716  Biso   1.000  Hf
  Hf24     1.0000 0.62929  0.01547  0.24148  Biso   1.000  Hf
  Hf25     1.0000 0.63346  0.23100  0.74775  Biso   1.000  Hf
  Hf26     1.0000 0.85957  0.26514  0.25264  Biso   1.000  Hf
  Hf27     1.0000 0.87111  0.48028  0.75572  Biso   1.000  Hf
  Hf28     1.0000 0.54599  0.18979  0.37212  Biso   1.000  Hf
  Hf29     1.0000 0.53690  0.06626  0.88124  Biso   1.000  Hf
  Hf30     1.0000 0.96992  0.42599  0.40270  Biso   1.000  Hf
  Hf31     1.0000 0.97599  0.31458  0.92491  Biso   1.000  Hf
  Hf32     1.0000 0.76786  0.11513  0.48694  Biso   1.000  Hf
  Hf33     1.0000 0.77811  0.12882  0.98742  Biso   1.000  Hf
  Hf34     1.0000 0.73311  0.37978  0.00387  Biso   1.000  Hf
  Hf35     1.0000 0.73258  0.36793  0.50554  Biso   1.000  Hf
  Hf36     1.0000 0.63548  0.51802  0.25520  Biso   1.000  Hf
  Hf37     1.0000 0.63111  0.73362  0.74921  Biso   1.000  Hf
  Hf38     1.0000 0.86570  0.76058  0.23911  Biso   1.000  Hf
  Hf39     1.0000 0.85606  0.97600  0.73334  Biso   1.000  Hf
  Hf40     1.0000 0.53754  0.68510  0.38984  Biso   1.000  Hf
  Hf41     1.0000 0.54016  0.56665  0.89071  Biso   1.000  Hf
  Hf42     1.0000 0.95277  0.93284  0.35428  Biso   1.000  Hf
  Hf43     1.0000 0.96588  0.82315  0.87624  Biso   1.000  Hf
  Hf44     1.0000 0.77419  0.61475  0.49646  Biso   1.000  Hf
  Hf45     1.0000 0.77162  0.63039  0.99256  Biso   1.000  Hf
  Hf46     1.0000 0.72610  0.87806  0.99499  Biso   1.000  Hf
  Hf47     1.0000 0.73248  0.86605  0.49350  Biso   1.000  Hf
