data_image0
_cell_length_a       10.0566
_cell_length_b       10.2061
_cell_length_c       10.0566
_cell_angle_alpha    89.9999
_cell_angle_beta     90
_cell_angle_gamma    90

_symmetry_space_group_name_H-M    "P 1"
_symmetry_int_tables_number       1

loop_
  _symmetry_equiv_pos_as_xyz
  'x, y, z'

loop_
  _atom_site_label
  _atom_site_occupancy
  _atom_site_fract_x
  _atom_site_fract_y
  _atom_site_fract_z
  _atom_site_thermal_displace_type
  _atom_site_B_iso_or_equiv
  _atom_site_type_symbol
  Hf1      1.0000 0.12491  0.98185  0.12491  Biso   1.000  Hf
  Hf2      1.0000 0.12491  0.25005  0.39242  Biso   1.000  Hf
  Hf3      1.0000 0.39242  0.25005  0.12490  Biso   1.000  Hf
  Hf4      1.0000 0.37329  0.00402  0.37329  Biso   1.000  Hf
  Hf5      1.0000 0.99161  0.14548  0.99161  Biso   1.000  Hf
  Hf6      1.0000 0.00439  0.10717  0.24542  Biso   1.000  Hf
  Hf7      1.0000 0.99161  0.35463  0.25820  Biso   1.000  Hf
  Hf8      1.0000 0.00439  0.39294  0.00439  Biso   1.000  Hf
  Hf9      1.0000 0.25821  0.14548  0.25820  Biso   1.000  Hf
  Hf10     1.0000 0.24543  0.10717  0.00439  Biso   1.000  Hf
  Hf11     1.0000 0.25821  0.35463  0.99161  Biso   1.000  Hf
  Hf12     1.0000 0.24543  0.39293  0.24543  Biso   1.000  Hf
  Hf13     1.0000 0.12491  0.99464  0.62491  Biso   1.000  Hf
  Hf14     1.0000 0.12491  0.25005  0.85739  Biso   1.000  Hf
  Hf15     1.0000 0.37807  0.25005  0.62490  Biso   1.000  Hf
  Hf16     1.0000 0.37218  0.00430  0.87764  Biso   1.000  Hf
  Hf17     1.0000 0.99258  0.14315  0.50014  Biso   1.000  Hf
  Hf18     1.0000 0.00298  0.10359  0.74624  Biso   1.000  Hf
  Hf19     1.0000 0.99258  0.35696  0.74967  Biso   1.000  Hf
  Hf20     1.0000 0.00297  0.39652  0.50357  Biso   1.000  Hf
  Hf21     1.0000 0.25724  0.14315  0.74967  Biso   1.000  Hf
  Hf22     1.0000 0.24684  0.10359  0.50357  Biso   1.000  Hf
  Hf23     1.0000 0.25724  0.35696  0.50014  Biso   1.000  Hf
  Hf24     1.0000 0.24684  0.39652  0.74624  Biso   1.000  Hf
  Hf25     1.0000 0.12491  0.51826  0.12491  Biso   1.000  Hf
  Hf26     1.0000 0.12491  0.75006  0.37789  Biso   1.000  Hf
  Hf27     1.0000 0.37789  0.75005  0.12491  Biso   1.000  Hf
  Hf28     1.0000 0.37217  0.49580  0.37217  Biso   1.000  Hf
  Hf29     1.0000 0.00019  0.64632  0.00019  Biso   1.000  Hf
  Hf30     1.0000 0.99672  0.60907  0.25310  Biso   1.000  Hf
  Hf31     1.0000 0.00019  0.85380  0.24963  Biso   1.000  Hf
  Hf32     1.0000 0.99672  0.89104  0.99672  Biso   1.000  Hf
  Hf33     1.0000 0.24962  0.64631  0.24963  Biso   1.000  Hf
  Hf34     1.0000 0.25310  0.60907  0.99672  Biso   1.000  Hf
  Hf35     1.0000 0.24963  0.85380  0.00020  Biso   1.000  Hf
  Hf36     1.0000 0.25310  0.89104  0.25310  Biso   1.000  Hf
  Hf37     1.0000 0.12490  0.50547  0.62491  Biso   1.000  Hf
  Hf38     1.0000 0.12491  0.75006  0.87193  Biso   1.000  Hf
  Hf39     1.0000 0.37647  0.75005  0.62491  Biso   1.000  Hf
  Hf40     1.0000 0.37329  0.49608  0.87652  Biso   1.000  Hf
  Hf41     1.0000 0.99973  0.64650  0.50250  Biso   1.000  Hf
  Hf42     1.0000 0.00144  0.60410  0.75289  Biso   1.000  Hf
  Hf43     1.0000 0.99973  0.85361  0.74733  Biso   1.000  Hf
  Hf44     1.0000 0.00144  0.89601  0.49693  Biso   1.000  Hf
  Hf45     1.0000 0.25009  0.64650  0.74733  Biso   1.000  Hf
  Hf46     1.0000 0.24837  0.60410  0.49693  Biso   1.000  Hf
  Hf47     1.0000 0.25009  0.85360  0.50250  Biso   1.000  Hf
  Hf48     1.0000 0.24838  0.89600  0.75289  Biso   1.000  Hf
  Hf49     1.0000 0.62491  0.99464  0.12491  Biso   1.000  Hf
  Hf50     1.0000 0.62491  0.25005  0.37807  Biso   1.000  Hf
  Hf51     1.0000 0.85739  0.25005  0.12491  Biso   1.000  Hf
  Hf52     1.0000 0.87764  0.00430  0.37218  Biso   1.000  Hf
  Hf53     1.0000 0.50015  0.14315  0.99258  Biso   1.000  Hf
  Hf54     1.0000 0.50357  0.10359  0.24684  Biso   1.000  Hf
  Hf55     1.0000 0.50015  0.35695  0.25724  Biso   1.000  Hf
  Hf56     1.0000 0.50357  0.39652  0.00297  Biso   1.000  Hf
  Hf57     1.0000 0.74967  0.14315  0.25724  Biso   1.000  Hf
  Hf58     1.0000 0.74624  0.10359  0.00298  Biso   1.000  Hf
  Hf59     1.0000 0.74967  0.35696  0.99258  Biso   1.000  Hf
  Hf60     1.0000 0.74624  0.39652  0.24684  Biso   1.000  Hf
  Hf61     1.0000 0.62491  0.99694  0.62491  Biso   1.000  Hf
  Hf62     1.0000 0.62491  0.25005  0.87174  Biso   1.000  Hf
  Hf63     1.0000 0.87175  0.25005  0.62491  Biso   1.000  Hf
  Hf64     1.0000 0.87653  0.00402  0.87653  Biso   1.000  Hf
  Hf65     1.0000 0.49608  0.14788  0.49607  Biso   1.000  Hf
  Hf66     1.0000 0.50255  0.10195  0.74726  Biso   1.000  Hf
  Hf67     1.0000 0.49608  0.35223  0.75374  Biso   1.000  Hf
  Hf68     1.0000 0.50255  0.39816  0.50255  Biso   1.000  Hf
  Hf69     1.0000 0.75374  0.14788  0.75374  Biso   1.000  Hf
  Hf70     1.0000 0.74727  0.10195  0.50255  Biso   1.000  Hf
  Hf71     1.0000 0.75374  0.35223  0.49608  Biso   1.000  Hf
  Hf72     1.0000 0.74727  0.39816  0.74727  Biso   1.000  Hf
  Hf73     1.0000 0.62490  0.50546  0.12491  Biso   1.000  Hf
  Hf74     1.0000 0.62491  0.75005  0.37648  Biso   1.000  Hf
  Hf75     1.0000 0.87193  0.75006  0.12491  Biso   1.000  Hf
  Hf76     1.0000 0.87652  0.49609  0.37329  Biso   1.000  Hf
  Hf77     1.0000 0.50249  0.64650  0.99973  Biso   1.000  Hf
  Hf78     1.0000 0.49693  0.60410  0.24838  Biso   1.000  Hf
  Hf79     1.0000 0.50249  0.85360  0.25009  Biso   1.000  Hf
  Hf80     1.0000 0.49693  0.89601  0.00144  Biso   1.000  Hf
  Hf81     1.0000 0.74732  0.64650  0.25009  Biso   1.000  Hf
  Hf82     1.0000 0.75288  0.60410  0.00145  Biso   1.000  Hf
  Hf83     1.0000 0.74733  0.85361  0.99973  Biso   1.000  Hf
  Hf84     1.0000 0.75289  0.89600  0.24838  Biso   1.000  Hf
  Hf85     1.0000 0.62490  0.50316  0.62491  Biso   1.000  Hf
  Hf86     1.0000 0.62491  0.75006  0.87335  Biso   1.000  Hf
  Hf87     1.0000 0.87335  0.75005  0.62491  Biso   1.000  Hf
  Hf88     1.0000 0.87764  0.49581  0.87764  Biso   1.000  Hf
  Hf89     1.0000 0.49925  0.64781  0.49926  Biso   1.000  Hf
  Hf90     1.0000 0.49974  0.60196  0.75008  Biso   1.000  Hf
  Hf91     1.0000 0.49926  0.85230  0.75056  Biso   1.000  Hf
  Hf92     1.0000 0.49974  0.89815  0.49974  Biso   1.000  Hf
  Hf93     1.0000 0.75056  0.64781  0.75057  Biso   1.000  Hf
  Hf94     1.0000 0.75008  0.60196  0.49974  Biso   1.000  Hf
  Hf95     1.0000 0.75056  0.85230  0.49926  Biso   1.000  Hf
  Hf96     1.0000 0.75008  0.89815  0.75008  Biso   1.000  Hf
  Hf97     1.0000 0.12491  0.25005  0.12491  Biso   1.000  Hf
