data_image0
_cell_length_a       5.11204
_cell_length_b       10.0941
_cell_length_c       10.094
_cell_angle_alpha    90.0001
_cell_angle_beta     90
_cell_angle_gamma    89.9996

_symmetry_space_group_name_H-M    "P 1"
_symmetry_int_tables_number       1

loop_
  _symmetry_equiv_pos_as_xyz
  'x, y, z'

loop_
  _atom_site_label
  _atom_site_occupancy
  _atom_site_fract_x
  _atom_site_fract_y
  _atom_site_fract_z
  _atom_site_thermal_displace_type
  _atom_site_B_iso_or_equiv
  _atom_site_type_symbol
  Hf1      1.0000 0.24981  0.97988  0.12495  Biso   1.000  Hf
  Hf2      1.0000 0.24982  0.25006  0.39511  Biso   1.000  Hf
  Hf3      1.0000 0.74982  0.25005  0.12495  Biso   1.000  Hf
  Hf4      1.0000 0.74861  0.00352  0.37148  Biso   1.000  Hf
  Hf5      1.0000 0.98019  0.12841  0.00329  Biso   1.000  Hf
  Hf6      1.0000 0.02768  0.11908  0.25591  Biso   1.000  Hf
  Hf7      1.0000 0.98019  0.37169  0.24659  Biso   1.000  Hf
  Hf8      1.0000 0.02768  0.38103  0.99397  Biso   1.000  Hf
  Hf9      1.0000 0.51945  0.12842  0.24659  Biso   1.000  Hf
  Hf10     1.0000 0.47196  0.11908  0.99397  Biso   1.000  Hf
  Hf11     1.0000 0.51945  0.37169  0.00329  Biso   1.000  Hf
  Hf12     1.0000 0.47196  0.38103  0.25591  Biso   1.000  Hf
  Hf13     1.0000 0.24981  0.99516  0.62495  Biso   1.000  Hf
  Hf14     1.0000 0.24982  0.25005  0.85477  Biso   1.000  Hf
  Hf15     1.0000 0.74982  0.25005  0.62495  Biso   1.000  Hf
  Hf16     1.0000 0.75101  0.00352  0.87842  Biso   1.000  Hf
  Hf17     1.0000 0.96576  0.13200  0.50383  Biso   1.000  Hf
  Hf18     1.0000 0.02920  0.11253  0.75315  Biso   1.000  Hf
  Hf19     1.0000 0.96577  0.36812  0.74605  Biso   1.000  Hf
  Hf20     1.0000 0.02921  0.38759  0.49673  Biso   1.000  Hf
  Hf21     1.0000 0.53386  0.13198  0.74604  Biso   1.000  Hf
  Hf22     1.0000 0.47041  0.11251  0.49673  Biso   1.000  Hf
  Hf23     1.0000 0.53387  0.36811  0.50384  Biso   1.000  Hf
  Hf24     1.0000 0.47043  0.38758  0.75315  Biso   1.000  Hf
  Hf25     1.0000 0.24982  0.52023  0.12495  Biso   1.000  Hf
  Hf26     1.0000 0.24982  0.75005  0.37985  Biso   1.000  Hf
  Hf27     1.0000 0.74981  0.75005  0.12495  Biso   1.000  Hf
  Hf28     1.0000 0.75102  0.49659  0.37148  Biso   1.000  Hf
  Hf29     1.0000 0.96577  0.62896  0.00688  Biso   1.000  Hf
  Hf30     1.0000 0.02920  0.62184  0.26247  Biso   1.000  Hf
  Hf31     1.0000 0.96577  0.87115  0.24301  Biso   1.000  Hf
  Hf32     1.0000 0.02921  0.87827  0.98741  Biso   1.000  Hf
  Hf33     1.0000 0.53385  0.62896  0.24301  Biso   1.000  Hf
  Hf34     1.0000 0.47042  0.62184  0.98742  Biso   1.000  Hf
  Hf35     1.0000 0.53385  0.87115  0.00687  Biso   1.000  Hf
  Hf36     1.0000 0.47042  0.87827  0.26247  Biso   1.000  Hf
  Hf37     1.0000 0.24982  0.50494  0.62495  Biso   1.000  Hf
  Hf38     1.0000 0.24982  0.75005  0.87005  Biso   1.000  Hf
  Hf39     1.0000 0.74982  0.75005  0.62495  Biso   1.000  Hf
  Hf40     1.0000 0.74862  0.49659  0.87842  Biso   1.000  Hf
  Hf41     1.0000 0.96424  0.63178  0.50666  Biso   1.000  Hf
  Hf42     1.0000 0.03730  0.61417  0.76083  Biso   1.000  Hf
  Hf43     1.0000 0.96422  0.86834  0.74323  Biso   1.000  Hf
  Hf44     1.0000 0.03729  0.88595  0.48905  Biso   1.000  Hf
  Hf45     1.0000 0.53541  0.63177  0.74323  Biso   1.000  Hf
  Hf46     1.0000 0.46234  0.61416  0.48906  Biso   1.000  Hf
  Hf47     1.0000 0.53540  0.86832  0.50666  Biso   1.000  Hf
  Hf48     1.0000 0.46234  0.88594  0.76083  Biso   1.000  Hf
  Hf49     1.0000 0.24982  0.25005  0.12494  Biso   1.000  Hf
