data_image0
_cell_length_a       10.1059
_cell_length_b       5.18976
_cell_length_c       10.1222
_cell_angle_alpha    90.7853
_cell_angle_beta     91.3733
_cell_angle_gamma    89.6457

_symmetry_space_group_name_H-M    "P 1"
_symmetry_int_tables_number       1

loop_
  _symmetry_equiv_pos_as_xyz
  'x, y, z'

loop_
  _atom_site_label
  _atom_site_occupancy
  _atom_site_fract_x
  _atom_site_fract_y
  _atom_site_fract_z
  _atom_site_thermal_displace_type
  _atom_site_B_iso_or_equiv
  _atom_site_type_symbol
  Hf1      1.0000 0.11713  0.99102  0.11582  Biso   1.000  Hf
  Hf2      1.0000 0.12896  0.48320  0.38014  Biso   1.000  Hf
  Hf3      1.0000 0.38544  0.53304  0.10596  Biso   1.000  Hf
  Hf4      1.0000 0.36485  0.99046  0.36098  Biso   1.000  Hf
  Hf5      1.0000 0.99120  0.25715  0.22610  Biso   1.000  Hf
  Hf6      1.0000 0.03345  0.16371  0.46035  Biso   1.000  Hf
  Hf7      1.0000 0.46936  0.86962  0.19119  Biso   1.000  Hf
  Hf8      1.0000 0.47934  0.67081  0.44629  Biso   1.000  Hf
  Hf9      1.0000 0.24875  0.22992  0.23302  Biso   1.000  Hf
  Hf10     1.0000 0.28055  0.28984  0.48141  Biso   1.000  Hf
  Hf11     1.0000 0.24158  0.79220  0.48553  Biso   1.000  Hf
  Hf12     1.0000 0.24675  0.71812  0.23768  Biso   1.000  Hf
  Hf13     1.0000 0.11970  0.99120  0.61933  Biso   1.000  Hf
  Hf14     1.0000 0.13218  0.47350  0.83913  Biso   1.000  Hf
  Hf15     1.0000 0.37831  0.54219  0.60613  Biso   1.000  Hf
  Hf16     1.0000 0.36170  0.97894  0.86672  Biso   1.000  Hf
  Hf17     1.0000 0.01385  0.30409  0.69945  Biso   1.000  Hf
  Hf18     1.0000 0.01405  0.21274  0.96458  Biso   1.000  Hf
  Hf19     1.0000 0.47438  0.87819  0.69682  Biso   1.000  Hf
  Hf20     1.0000 0.47025  0.65797  0.93658  Biso   1.000  Hf
  Hf21     1.0000 0.25738  0.21734  0.73352  Biso   1.000  Hf
  Hf22     1.0000 0.26016  0.27341  0.98310  Biso   1.000  Hf
  Hf23     1.0000 0.23067  0.76486  0.98423  Biso   1.000  Hf
  Hf24     1.0000 0.24652  0.71853  0.73152  Biso   1.000  Hf
  Hf25     1.0000 0.62868  0.03150  0.12198  Biso   1.000  Hf
  Hf26     1.0000 0.63684  0.47647  0.37602  Biso   1.000  Hf
  Hf27     1.0000 0.85036  0.51226  0.12886  Biso   1.000  Hf
  Hf28     1.0000 0.88097  0.98225  0.36752  Biso   1.000  Hf
  Hf29     1.0000 0.53147  0.36144  0.20521  Biso   1.000  Hf
  Hf30     1.0000 0.53410  0.15686  0.44666  Biso   1.000  Hf
  Hf31     1.0000 0.99800  0.74794  0.24292  Biso   1.000  Hf
  Hf32     1.0000 0.99346  0.68916  0.49768  Biso   1.000  Hf
  Hf33     1.0000 0.75517  0.22020  0.25263  Biso   1.000  Hf
  Hf34     1.0000 0.77429  0.28172  0.49762  Biso   1.000  Hf
  Hf35     1.0000 0.74584  0.78134  0.49643  Biso   1.000  Hf
  Hf36     1.0000 0.73512  0.73733  0.24856  Biso   1.000  Hf
  Hf37     1.0000 0.63348  0.03210  0.61709  Biso   1.000  Hf
  Hf38     1.0000 0.63186  0.47054  0.86833  Biso   1.000  Hf
  Hf39     1.0000 0.86446  0.53170  0.62913  Biso   1.000  Hf
  Hf40     1.0000 0.86508  0.97084  0.88543  Biso   1.000  Hf
  Hf41     1.0000 0.53620  0.37206  0.69220  Biso   1.000  Hf
  Hf42     1.0000 0.52133  0.16428  0.95147  Biso   1.000  Hf
  Hf43     1.0000 0.99474  0.80143  0.74666  Biso   1.000  Hf
  Hf44     1.0000 0.97783  0.71536  0.99677  Biso   1.000  Hf
  Hf45     1.0000 0.76538  0.22449  0.74986  Biso   1.000  Hf
  Hf46     1.0000 0.75895  0.26161  0.99749  Biso   1.000  Hf
  Hf47     1.0000 0.72520  0.76254  0.99631  Biso   1.000  Hf
  Hf48     1.0000 0.73845  0.73432  0.74918  Biso   1.000  Hf
  Hf49     1.0000 0.11830  0.48907  0.10888  Biso   1.000  Hf
