data_image0
_cell_length_a       10.2754
_cell_length_b       10.4872
_cell_length_c       5.07464
_cell_angle_alpha    96.3036
_cell_angle_beta     90.4861
_cell_angle_gamma    89.3599

_symmetry_space_group_name_H-M    "P 1"
_symmetry_int_tables_number       1

loop_
  _symmetry_equiv_pos_as_xyz
  'x, y, z'

loop_
  _atom_site_label
  _atom_site_occupancy
  _atom_site_fract_x
  _atom_site_fract_y
  _atom_site_fract_z
  _atom_site_thermal_displace_type
  _atom_site_B_iso_or_equiv
  _atom_site_type_symbol
  Hf1      1.0000 0.15813  0.97406  0.29965  Biso   1.000  Hf
  Hf2      1.0000 0.11860  0.28186  0.64104  Biso   1.000  Hf
  Hf3      1.0000 0.35634  0.22635  0.21798  Biso   1.000  Hf
  Hf4      1.0000 0.40559  0.01290  0.72294  Biso   1.000  Hf
  Hf5      1.0000 0.91707  0.22367  0.88343  Biso   1.000  Hf
  Hf6      1.0000 0.00738  0.11206  0.47567  Biso   1.000  Hf
  Hf7      1.0000 0.97739  0.37827  0.41505  Biso   1.000  Hf
  Hf8      1.0000 0.04730  0.43731  0.89654  Biso   1.000  Hf
  Hf9      1.0000 0.25712  0.13043  0.54157  Biso   1.000  Hf
  Hf10     1.0000 0.30387  0.03955  0.06580  Biso   1.000  Hf
  Hf11     1.0000 0.28630  0.32921  0.88895  Biso   1.000  Hf
  Hf12     1.0000 0.23419  0.39362  0.43018  Biso   1.000  Hf
  Hf13     1.0000 0.11418  0.52358  0.24432  Biso   1.000  Hf
  Hf14     1.0000 0.10938  0.77158  0.76899  Biso   1.000  Hf
  Hf15     1.0000 0.36708  0.72680  0.31190  Biso   1.000  Hf
  Hf16     1.0000 0.35808  0.48853  0.72802  Biso   1.000  Hf
  Hf17     1.0000 0.00639  0.67380  0.03390  Biso   1.000  Hf
  Hf18     1.0000 0.99439  0.62308  0.52514  Biso   1.000  Hf
  Hf19     1.0000 0.00574  0.86367  0.48037  Biso   1.000  Hf
  Hf20     1.0000 0.03123  0.94557  0.96610  Biso   1.000  Hf
  Hf21     1.0000 0.23820  0.63864  0.55957  Biso   1.000  Hf
  Hf22     1.0000 0.28028  0.57313  0.07125  Biso   1.000  Hf
  Hf23     1.0000 0.23266  0.80964  0.08547  Biso   1.000  Hf
  Hf24     1.0000 0.26126  0.88097  0.57824  Biso   1.000  Hf
  Hf25     1.0000 0.64784  0.98014  0.28322  Biso   1.000  Hf
  Hf26     1.0000 0.59588  0.27076  0.70320  Biso   1.000  Hf
  Hf27     1.0000 0.82972  0.24467  0.26364  Biso   1.000  Hf
  Hf28     1.0000 0.89025  0.02509  0.73428  Biso   1.000  Hf
  Hf29     1.0000 0.48757  0.17421  0.93545  Biso   1.000  Hf
  Hf30     1.0000 0.50371  0.11126  0.44032  Biso   1.000  Hf
  Hf31     1.0000 0.48210  0.35942  0.43121  Biso   1.000  Hf
  Hf32     1.0000 0.51818  0.43691  0.91795  Biso   1.000  Hf
  Hf33     1.0000 0.74032  0.13955  0.53930  Biso   1.000  Hf
  Hf34     1.0000 0.77957  0.06388  0.06692  Biso   1.000  Hf
  Hf35     1.0000 0.69356  0.31901  0.06631  Biso   1.000  Hf
  Hf36     1.0000 0.73689  0.39502  0.54449  Biso   1.000  Hf
  Hf37     1.0000 0.61604  0.49865  0.24978  Biso   1.000  Hf
  Hf38     1.0000 0.60699  0.75792  0.77628  Biso   1.000  Hf
  Hf39     1.0000 0.86013  0.73669  0.30821  Biso   1.000  Hf
  Hf40     1.0000 0.87896  0.51016  0.73373  Biso   1.000  Hf
  Hf41     1.0000 0.52428  0.67144  0.06926  Biso   1.000  Hf
  Hf42     1.0000 0.49019  0.60839  0.53787  Biso   1.000  Hf
  Hf43     1.0000 0.50702  0.85890  0.48346  Biso   1.000  Hf
  Hf44     1.0000 0.53185  0.92508  0.96456  Biso   1.000  Hf
  Hf45     1.0000 0.74671  0.64329  0.56446  Biso   1.000  Hf
  Hf46     1.0000 0.78582  0.55734  0.08173  Biso   1.000  Hf
  Hf47     1.0000 0.74436  0.81477  0.05844  Biso   1.000  Hf
  Hf48     1.0000 0.75951  0.89154  0.55647  Biso   1.000  Hf
  Hg1      1.0000 0.09545  0.19574  0.09907  Biso   1.000  Hg
