data_image0
_cell_length_a       9.95211
_cell_length_b       10.387
_cell_length_c       5.03241
_cell_angle_alpha    90.1664
_cell_angle_beta     89.0851
_cell_angle_gamma    89.9174

_symmetry_space_group_name_H-M    "P 1"
_symmetry_int_tables_number       1

loop_
  _symmetry_equiv_pos_as_xyz
  'x, y, z'

loop_
  _atom_site_label
  _atom_site_occupancy
  _atom_site_fract_x
  _atom_site_fract_y
  _atom_site_fract_z
  _atom_site_thermal_displace_type
  _atom_site_B_iso_or_equiv
  _atom_site_type_symbol
  Hg1      1.0000 0.12053  0.02274  0.22720  Biso   1.000  Hg
  Hf1      1.0000 0.13623  0.23444  0.74882  Biso   1.000  Hf
  Hf2      1.0000 0.36765  0.26879  0.26453  Biso   1.000  Hf
  Hf3      1.0000 0.36539  0.48392  0.75809  Biso   1.000  Hf
  Hf4      1.0000 0.04505  0.19499  0.35730  Biso   1.000  Hf
  Hf5      1.0000 0.03380  0.07024  0.80116  Biso   1.000  Hf
  Hf6      1.0000 0.46463  0.43378  0.39718  Biso   1.000  Hf
  Hf7      1.0000 0.46267  0.31435  0.89086  Biso   1.000  Hf
  Hf8      1.0000 0.29273  0.13556  0.53658  Biso   1.000  Hf
  Hf9      1.0000 0.26441  0.12679  0.02291  Biso   1.000  Hf
  Hf10     1.0000 0.23064  0.38068  0.00492  Biso   1.000  Hf
  Hf11     1.0000 0.22679  0.37294  0.50315  Biso   1.000  Hf
  Hf12     1.0000 0.13485  0.51617  0.25496  Biso   1.000  Hf
  Hf13     1.0000 0.13320  0.73139  0.75710  Biso   1.000  Hf
  Hf14     1.0000 0.36661  0.76509  0.26455  Biso   1.000  Hf
  Hf15     1.0000 0.36375  0.98257  0.75363  Biso   1.000  Hf
  Hf16     1.0000 0.03573  0.68406  0.39269  Biso   1.000  Hf
  Hf17     1.0000 0.03400  0.56412  0.89481  Biso   1.000  Hf
  Hf18     1.0000 0.46792  0.93348  0.39746  Biso   1.000  Hf
  Hf19     1.0000 0.46279  0.81656  0.90199  Biso   1.000  Hf
  Hf20     1.0000 0.26986  0.61368  0.50330  Biso   1.000  Hf
  Hf21     1.0000 0.26979  0.63291  0.00509  Biso   1.000  Hf
  Hf22     1.0000 0.22474  0.88005  0.02618  Biso   1.000  Hf
  Hf23     1.0000 0.24279  0.85711  0.53362  Biso   1.000  Hf
  Hf24     1.0000 0.63407  0.01614  0.24751  Biso   1.000  Hf
  Hf25     1.0000 0.63266  0.23190  0.74864  Biso   1.000  Hf
  Hf26     1.0000 0.86077  0.26742  0.24252  Biso   1.000  Hf
  Hf27     1.0000 0.86580  0.48238  0.75006  Biso   1.000  Hf
  Hf28     1.0000 0.54319  0.18746  0.37918  Biso   1.000  Hf
  Hf29     1.0000 0.53605  0.06516  0.88820  Biso   1.000  Hf
  Hf30     1.0000 0.96395  0.42970  0.38746  Biso   1.000  Hf
  Hf31     1.0000 0.96187  0.31689  0.88178  Biso   1.000  Hf
  Hf32     1.0000 0.77206  0.11798  0.49176  Biso   1.000  Hf
  Hf33     1.0000 0.77191  0.13110  0.99169  Biso   1.000  Hf
  Hf34     1.0000 0.72794  0.38123  0.00027  Biso   1.000  Hf
  Hf35     1.0000 0.72837  0.36864  0.50036  Biso   1.000  Hf
  Hf36     1.0000 0.63384  0.51664  0.25573  Biso   1.000  Hf
  Hf37     1.0000 0.63258  0.73373  0.75530  Biso   1.000  Hf
  Hf38     1.0000 0.86670  0.76218  0.24194  Biso   1.000  Hf
  Hf39     1.0000 0.86369  0.98304  0.74376  Biso   1.000  Hf
  Hf40     1.0000 0.53607  0.68299  0.39989  Biso   1.000  Hf
  Hf41     1.0000 0.53488  0.56616  0.89742  Biso   1.000  Hf
  Hf42     1.0000 0.95554  0.93531  0.36816  Biso   1.000  Hf
  Hf43     1.0000 0.96267  0.81651  0.88341  Biso   1.000  Hf
  Hf44     1.0000 0.77074  0.61609  0.49769  Biso   1.000  Hf
  Hf45     1.0000 0.76879  0.63083  0.99714  Biso   1.000  Hf
  Hf46     1.0000 0.72652  0.87927  0.99825  Biso   1.000  Hf
  Hf47     1.0000 0.73406  0.86587  0.49532  Biso   1.000  Hf
