data_image0
_cell_length_a       5.07463
_cell_length_b       10.4872
_cell_length_c       10.2754
_cell_angle_alpha    89.3586
_cell_angle_beta     90.4867
_cell_angle_gamma    96.3025

_symmetry_space_group_name_H-M    "P 1"
_symmetry_int_tables_number       1

loop_
  _symmetry_equiv_pos_as_xyz
  'x, y, z'

loop_
  _atom_site_label
  _atom_site_occupancy
  _atom_site_fract_x
  _atom_site_fract_y
  _atom_site_fract_z
  _atom_site_thermal_displace_type
  _atom_site_B_iso_or_equiv
  _atom_site_type_symbol
  Hf1      1.0000 0.29957  0.97408  0.15811  Biso   1.000  Hf
  Hf2      1.0000 0.21794  0.22636  0.35633  Biso   1.000  Hf
  Hf3      1.0000 0.64094  0.28188  0.11858  Biso   1.000  Hf
  Hf4      1.0000 0.72288  0.01291  0.40556  Biso   1.000  Hf
  Hf5      1.0000 0.88340  0.22366  0.91705  Biso   1.000  Hf
  Hf6      1.0000 0.06574  0.03955  0.30385  Biso   1.000  Hf
  Hf7      1.0000 0.88886  0.32922  0.28627  Biso   1.000  Hf
  Hf8      1.0000 0.89646  0.43732  0.04728  Biso   1.000  Hf
  Hf9      1.0000 0.54151  0.13044  0.25710  Biso   1.000  Hf
  Hf10     1.0000 0.47560  0.11207  0.00735  Biso   1.000  Hf
  Hf11     1.0000 0.41498  0.37828  0.97737  Biso   1.000  Hf
  Hf12     1.0000 0.43009  0.39363  0.23418  Biso   1.000  Hf
  Hf13     1.0000 0.28315  0.98016  0.64781  Biso   1.000  Hf
  Hf14     1.0000 0.26359  0.24467  0.82970  Biso   1.000  Hf
  Hf15     1.0000 0.70314  0.27078  0.59586  Biso   1.000  Hf
  Hf16     1.0000 0.73422  0.02510  0.89023  Biso   1.000  Hf
  Hf17     1.0000 0.93539  0.17422  0.48755  Biso   1.000  Hf
  Hf18     1.0000 0.06686  0.06389  0.77954  Biso   1.000  Hf
  Hf19     1.0000 0.06624  0.31902  0.69355  Biso   1.000  Hf
  Hf20     1.0000 0.91788  0.43693  0.51816  Biso   1.000  Hf
  Hf21     1.0000 0.53924  0.13957  0.74029  Biso   1.000  Hf
  Hf22     1.0000 0.44026  0.11128  0.50369  Biso   1.000  Hf
  Hf23     1.0000 0.43114  0.35943  0.48208  Biso   1.000  Hf
  Hf24     1.0000 0.54443  0.39503  0.73687  Biso   1.000  Hf
  Hf25     1.0000 0.24422  0.52360  0.11415  Biso   1.000  Hf
  Hf26     1.0000 0.31184  0.72681  0.36705  Biso   1.000  Hf
  Hf27     1.0000 0.76892  0.77159  0.10937  Biso   1.000  Hf
  Hf28     1.0000 0.72795  0.48853  0.35806  Biso   1.000  Hf
  Hf29     1.0000 0.03383  0.67381  0.00637  Biso   1.000  Hf
  Hf30     1.0000 0.07118  0.57315  0.28026  Biso   1.000  Hf
  Hf31     1.0000 0.08541  0.80965  0.23263  Biso   1.000  Hf
  Hf32     1.0000 0.96603  0.94558  0.03121  Biso   1.000  Hf
  Hf33     1.0000 0.55950  0.63865  0.23818  Biso   1.000  Hf
  Hf34     1.0000 0.52507  0.62310  0.99437  Biso   1.000  Hf
  Hf35     1.0000 0.48029  0.86369  0.00572  Biso   1.000  Hf
  Hf36     1.0000 0.57817  0.88098  0.26123  Biso   1.000  Hf
  Hf37     1.0000 0.24970  0.49866  0.61602  Biso   1.000  Hf
  Hf38     1.0000 0.30814  0.73670  0.86011  Biso   1.000  Hf
  Hf39     1.0000 0.77621  0.75794  0.60697  Biso   1.000  Hf
  Hf40     1.0000 0.73365  0.51017  0.87894  Biso   1.000  Hf
  Hf41     1.0000 0.06920  0.67144  0.52426  Biso   1.000  Hf
  Hf42     1.0000 0.08166  0.55736  0.78580  Biso   1.000  Hf
  Hf43     1.0000 0.05836  0.81479  0.74433  Biso   1.000  Hf
  Hf44     1.0000 0.96451  0.92509  0.53182  Biso   1.000  Hf
  Hf45     1.0000 0.56438  0.64330  0.74668  Biso   1.000  Hf
  Hf46     1.0000 0.53781  0.60840  0.49016  Biso   1.000  Hf
  Hf47     1.0000 0.48340  0.85891  0.50699  Biso   1.000  Hf
  Hf48     1.0000 0.55641  0.89155  0.75949  Biso   1.000  Hf
  Hg1      1.0000 0.09900  0.19577  0.09544  Biso   1.000  Hg
