data_image0
_cell_length_a       10.0502
_cell_length_b       5.07521
_cell_length_c       10.2138
_cell_angle_alpha    91.0019
_cell_angle_beta     90.5587
_cell_angle_gamma    87.9373

_symmetry_space_group_name_H-M    "P 1"
_symmetry_int_tables_number       1

loop_
  _symmetry_equiv_pos_as_xyz
  'x, y, z'

loop_
  _atom_site_label
  _atom_site_occupancy
  _atom_site_fract_x
  _atom_site_fract_y
  _atom_site_fract_z
  _atom_site_thermal_displace_type
  _atom_site_B_iso_or_equiv
  _atom_site_type_symbol
  Hg1      1.0000 0.11715  0.99976  0.15261  Biso   1.000  Hg
  Hf1      1.0000 0.12941  0.49223  0.38714  Biso   1.000  Hf
  Hf2      1.0000 0.37388  0.52845  0.11608  Biso   1.000  Hf
  Hf3      1.0000 0.39678  0.05274  0.35366  Biso   1.000  Hf
  Hf4      1.0000 0.97652  0.18504  0.04593  Biso   1.000  Hf
  Hf5      1.0000 0.02976  0.16196  0.30848  Biso   1.000  Hf
  Hf6      1.0000 0.97996  0.64454  0.25495  Biso   1.000  Hf
  Hf7      1.0000 0.96981  0.69145  0.97742  Biso   1.000  Hf
  Hf8      1.0000 0.27026  0.32941  0.25242  Biso   1.000  Hf
  Hf9      1.0000 0.24736  0.32208  0.98706  Biso   1.000  Hf
  Hf10     1.0000 0.22588  0.81059  0.01362  Biso   1.000  Hf
  Hf11     1.0000 0.24018  0.80401  0.27485  Biso   1.000  Hf
  Hf12     1.0000 0.14138  0.97344  0.61330  Biso   1.000  Hf
  Hf13     1.0000 0.12421  0.53698  0.86818  Biso   1.000  Hf
  Hf14     1.0000 0.36867  0.45586  0.63255  Biso   1.000  Hf
  Hf15     1.0000 0.35582  0.03880  0.88660  Biso   1.000  Hf
  Hf16     1.0000 0.02981  0.30372  0.54444  Biso   1.000  Hf
  Hf17     1.0000 0.98209  0.28418  0.79810  Biso   1.000  Hf
  Hf18     1.0000 0.00368  0.77860  0.73463  Biso   1.000  Hf
  Hf19     1.0000 0.01614  0.79111  0.48652  Biso   1.000  Hf
  Hf20     1.0000 0.23479  0.25374  0.74294  Biso   1.000  Hf
  Hf21     1.0000 0.26712  0.19623  0.49480  Biso   1.000  Hf
  Hf22     1.0000 0.26009  0.69543  0.51503  Biso   1.000  Hf
  Hf23     1.0000 0.26037  0.75358  0.76174  Biso   1.000  Hf
  Hf24     1.0000 0.63116  0.03708  0.12498  Biso   1.000  Hf
  Hf25     1.0000 0.64793  0.48115  0.38830  Biso   1.000  Hf
  Hf26     1.0000 0.85600  0.50931  0.11303  Biso   1.000  Hf
  Hf27     1.0000 0.87133  0.94730  0.36931  Biso   1.000  Hf
  Hf28     1.0000 0.49266  0.24174  0.01132  Biso   1.000  Hf
  Hf29     1.0000 0.51733  0.31827  0.25556  Biso   1.000  Hf
  Hf30     1.0000 0.47286  0.84044  0.18997  Biso   1.000  Hf
  Hf31     1.0000 0.46338  0.71226  0.94262  Biso   1.000  Hf
  Hf32     1.0000 0.76780  0.23651  0.24001  Biso   1.000  Hf
  Hf33     1.0000 0.74115  0.25849  0.98179  Biso   1.000  Hf
  Hf34     1.0000 0.72040  0.75285  0.00978  Biso   1.000  Hf
  Hf35     1.0000 0.73230  0.74620  0.25676  Biso   1.000  Hf
  Hf36     1.0000 0.62665  0.97979  0.61594  Biso   1.000  Hf
  Hf37     1.0000 0.61570  0.50144  0.85899  Biso   1.000  Hf
  Hf38     1.0000 0.87815  0.47930  0.64444  Biso   1.000  Hf
  Hf39     1.0000 0.87223  0.99642  0.87832  Biso   1.000  Hf
  Hf40     1.0000 0.51387  0.28135  0.50812  Biso   1.000  Hf
  Hf41     1.0000 0.49244  0.19644  0.75976  Biso   1.000  Hf
  Hf42     1.0000 0.52309  0.68032  0.69122  Biso   1.000  Hf
  Hf43     1.0000 0.53159  0.80518  0.44470  Biso   1.000  Hf
  Hf44     1.0000 0.74257  0.24082  0.73085  Biso   1.000  Hf
  Hf45     1.0000 0.76973  0.21918  0.49018  Biso   1.000  Hf
  Hf46     1.0000 0.76773  0.72030  0.51480  Biso   1.000  Hf
  Hf47     1.0000 0.75192  0.74523  0.76775  Biso   1.000  Hf
