data_image0
_cell_length_a       5.00146
_cell_length_b       10.2333
_cell_length_c       10.0345
_cell_angle_alpha    90
_cell_angle_beta     89.9997
_cell_angle_gamma    90

_symmetry_space_group_name_H-M    "P 1"
_symmetry_int_tables_number       1

loop_
  _symmetry_equiv_pos_as_xyz
  'x, y, z'

loop_
  _atom_site_label
  _atom_site_occupancy
  _atom_site_fract_x
  _atom_site_fract_y
  _atom_site_fract_z
  _atom_site_thermal_displace_type
  _atom_site_B_iso_or_equiv
  _atom_site_type_symbol
  In1      1.0000 0.24982  0.00006  0.12491  Biso   1.000  In
  Hf1      1.0000 0.24977  0.25044  0.37515  Biso   1.000  Hf
  Hf2      1.0000 0.74982  0.25195  0.12491  Biso   1.000  Hf
  Hf3      1.0000 0.74981  0.00005  0.37317  Biso   1.000  Hf
  Hf4      1.0000 0.98266  0.15035  0.99228  Biso   1.000  Hf
  Hf5      1.0000 0.00331  0.10743  0.25159  Biso   1.000  Hf
  Hf6      1.0000 0.00304  0.35390  0.24961  Biso   1.000  Hf
  Hf7      1.0000 0.99773  0.39828  0.00036  Biso   1.000  Hf
  Hf8      1.0000 0.51698  0.15035  0.25753  Biso   1.000  Hf
  Hf9      1.0000 0.49632  0.10743  0.99823  Biso   1.000  Hf
  Hf10     1.0000 0.49659  0.35390  0.00021  Biso   1.000  Hf
  Hf11     1.0000 0.50190  0.39828  0.24946  Biso   1.000  Hf
  Hf12     1.0000 0.24982  0.00005  0.62491  Biso   1.000  Hf
  Hf13     1.0000 0.24986  0.25044  0.87467  Biso   1.000  Hf
  Hf14     1.0000 0.74982  0.24833  0.62491  Biso   1.000  Hf
  Hf15     1.0000 0.74982  0.00005  0.87664  Biso   1.000  Hf
  Hf16     1.0000 0.00194  0.14854  0.49999  Biso   1.000  Hf
  Hf17     1.0000 0.99710  0.10137  0.74764  Biso   1.000  Hf
  Hf18     1.0000 0.99699  0.35258  0.74942  Biso   1.000  Hf
  Hf19     1.0000 0.00273  0.39788  0.49903  Biso   1.000  Hf
  Hf20     1.0000 0.49769  0.14854  0.74983  Biso   1.000  Hf
  Hf21     1.0000 0.50254  0.10136  0.50217  Biso   1.000  Hf
  Hf22     1.0000 0.50264  0.35258  0.50040  Biso   1.000  Hf
  Hf23     1.0000 0.49690  0.39788  0.75079  Biso   1.000  Hf
  Hf24     1.0000 0.24982  0.50005  0.12491  Biso   1.000  Hf
  Hf25     1.0000 0.24986  0.74967  0.37515  Biso   1.000  Hf
  Hf26     1.0000 0.74982  0.74816  0.12491  Biso   1.000  Hf
  Hf27     1.0000 0.74982  0.50005  0.37562  Biso   1.000  Hf
  Hf28     1.0000 0.00304  0.64621  0.00021  Biso   1.000  Hf
  Hf29     1.0000 0.99773  0.60183  0.24946  Biso   1.000  Hf
  Hf30     1.0000 0.98265  0.84976  0.25754  Biso   1.000  Hf
  Hf31     1.0000 0.00331  0.89268  0.99823  Biso   1.000  Hf
  Hf32     1.0000 0.49659  0.64621  0.24961  Biso   1.000  Hf
  Hf33     1.0000 0.50190  0.60183  0.00036  Biso   1.000  Hf
  Hf34     1.0000 0.51698  0.84976  0.99228  Biso   1.000  Hf
  Hf35     1.0000 0.49632  0.89268  0.25159  Biso   1.000  Hf
  Hf36     1.0000 0.24982  0.50005  0.62491  Biso   1.000  Hf
  Hf37     1.0000 0.24977  0.74967  0.87467  Biso   1.000  Hf
  Hf38     1.0000 0.74982  0.75178  0.62491  Biso   1.000  Hf
  Hf39     1.0000 0.74982  0.50005  0.87419  Biso   1.000  Hf
  Hf40     1.0000 0.99699  0.64752  0.50040  Biso   1.000  Hf
  Hf41     1.0000 0.00273  0.60222  0.75079  Biso   1.000  Hf
  Hf42     1.0000 0.00194  0.85157  0.74983  Biso   1.000  Hf
  Hf43     1.0000 0.99709  0.89874  0.50217  Biso   1.000  Hf
  Hf44     1.0000 0.50264  0.64752  0.74942  Biso   1.000  Hf
  Hf45     1.0000 0.49690  0.60222  0.49903  Biso   1.000  Hf
  Hf46     1.0000 0.49769  0.85157  0.49999  Biso   1.000  Hf
  Hf47     1.0000 0.50254  0.89874  0.74764  Biso   1.000  Hf
