data_image0
_cell_length_a       10.3263
_cell_length_b       5.36127
_cell_length_c       10.2364
_cell_angle_alpha    100.122
_cell_angle_beta     86.27
_cell_angle_gamma    95.278

_symmetry_space_group_name_H-M    "P 1"
_symmetry_int_tables_number       1

loop_
  _symmetry_equiv_pos_as_xyz
  'x, y, z'

loop_
  _atom_site_label
  _atom_site_occupancy
  _atom_site_fract_x
  _atom_site_fract_y
  _atom_site_fract_z
  _atom_site_thermal_displace_type
  _atom_site_B_iso_or_equiv
  _atom_site_type_symbol
  Hf1      1.0000 0.14424  0.81074  0.14164  Biso   1.000  Hf
  Hf2      1.0000 0.11611  0.48219  0.37379  Biso   1.000  Hf
  Hf3      1.0000 0.36025  0.45910  0.14507  Biso   1.000  Hf
  Hf4      1.0000 0.39796  0.04860  0.36546  Biso   1.000  Hf
  Hf5      1.0000 0.95012  0.38555  0.96171  Biso   1.000  Hf
  Hf6      1.0000 0.03244  0.11877  0.26127  Biso   1.000  Hf
  Hf7      1.0000 0.97813  0.64595  0.25130  Biso   1.000  Hf
  Hf8      1.0000 0.02149  0.89294  0.99483  Biso   1.000  Hf
  Hf9      1.0000 0.27655  0.29832  0.30779  Biso   1.000  Hf
  Hf10     1.0000 0.27890  0.10140  0.04721  Biso   1.000  Hf
  Hf11     1.0000 0.27344  0.63385  0.00560  Biso   1.000  Hf
  Hf12     1.0000 0.25404  0.77119  0.29331  Biso   1.000  Hf
  Hf13     1.0000 0.14699  0.94251  0.64811  Biso   1.000  Hf
  Hf14     1.0000 0.11059  0.52086  0.85012  Biso   1.000  Hf
  Hf15     1.0000 0.35531  0.46243  0.63751  Biso   1.000  Hf
  Hf16     1.0000 0.39833  0.03062  0.87686  Biso   1.000  Hf
  Hf17     1.0000 0.99049  0.30775  0.49668  Biso   1.000  Hf
  Hf18     1.0000 0.01194  0.17468  0.74740  Biso   1.000  Hf
  Hf19     1.0000 0.98958  0.68891  0.74644  Biso   1.000  Hf
  Hf20     1.0000 0.00811  0.79941  0.50374  Biso   1.000  Hf
  Hf21     1.0000 0.24938  0.27588  0.77849  Biso   1.000  Hf
  Hf22     1.0000 0.27979  0.10930  0.53439  Biso   1.000  Hf
  Hf23     1.0000 0.22139  0.60118  0.54128  Biso   1.000  Hf
  Hf24     1.0000 0.24910  0.78388  0.77679  Biso   1.000  Hf
  Hf25     1.0000 0.64169  0.01098  0.13367  Biso   1.000  Hf
  Hf26     1.0000 0.60161  0.57517  0.35727  Biso   1.000  Hf
  Hf27     1.0000 0.82748  0.53120  0.11441  Biso   1.000  Hf
  Hf28     1.0000 0.89891  0.97356  0.39357  Biso   1.000  Hf
  Hf29     1.0000 0.48602  0.37585  0.97722  Biso   1.000  Hf
  Hf30     1.0000 0.50190  0.24523  0.22545  Biso   1.000  Hf
  Hf31     1.0000 0.50137  0.74459  0.22713  Biso   1.000  Hf
  Hf32     1.0000 0.52666  0.88630  0.97238  Biso   1.000  Hf
  Hf33     1.0000 0.73568  0.34187  0.24864  Biso   1.000  Hf
  Hf34     1.0000 0.74753  0.19198  0.00419  Biso   1.000  Hf
  Hf35     1.0000 0.74273  0.71318  0.99196  Biso   1.000  Hf
  Hf36     1.0000 0.75217  0.83857  0.25048  Biso   1.000  Hf
  Hf37     1.0000 0.64186  0.01640  0.63081  Biso   1.000  Hf
  Hf38     1.0000 0.60025  0.56305  0.85289  Biso   1.000  Hf
  Hf39     1.0000 0.85285  0.51849  0.60474  Biso   1.000  Hf
  Hf40     1.0000 0.88596  0.00730  0.87490  Biso   1.000  Hf
  Hf41     1.0000 0.48657  0.38990  0.48012  Biso   1.000  Hf
  Hf42     1.0000 0.49642  0.23105  0.73010  Biso   1.000  Hf
  Hf43     1.0000 0.49677  0.73417  0.72838  Biso   1.000  Hf
  Hf44     1.0000 0.52526  0.89448  0.47354  Biso   1.000  Hf
  Hf45     1.0000 0.74017  0.34725  0.74304  Biso   1.000  Hf
  Hf46     1.0000 0.75889  0.18652  0.50114  Biso   1.000  Hf
  Hf47     1.0000 0.74982  0.70099  0.49047  Biso   1.000  Hf
  Hf48     1.0000 0.75032  0.83446  0.74404  Biso   1.000  Hf
  In1      1.0000 0.09564  0.28460  0.08606  Biso   1.000  In
