data_image0
_cell_length_a       10.1246
_cell_length_b       10.3928
_cell_length_c       5.10398
_cell_angle_alpha    89.9963
_cell_angle_beta     85.2793
_cell_angle_gamma    90.0025

_symmetry_space_group_name_H-M    "P 1"
_symmetry_int_tables_number       1

loop_
  _symmetry_equiv_pos_as_xyz
  'x, y, z'

loop_
  _atom_site_label
  _atom_site_occupancy
  _atom_site_fract_x
  _atom_site_fract_y
  _atom_site_fract_z
  _atom_site_thermal_displace_type
  _atom_site_B_iso_or_equiv
  _atom_site_type_symbol
  Hf1      1.0000 0.12489  0.92172  0.24972  Biso   1.000  Hf
  Hf2      1.0000 0.12490  0.30003  0.74975  Biso   1.000  Hf
  Hf3      1.0000 0.38298  0.25326  0.31045  Biso   1.000  Hf
  Hf4      1.0000 0.36794  0.00256  0.78804  Biso   1.000  Hf
  Hf5      1.0000 0.97502  0.16596  0.83371  Biso   1.000  Hf
  Hf6      1.0000 0.97761  0.05927  0.35437  Biso   1.000  Hf
  Hf7      1.0000 0.98514  0.36562  0.47970  Biso   1.000  Hf
  Hf8      1.0000 0.99064  0.41974  0.98978  Biso   1.000  Hf
  Hf9      1.0000 0.27478  0.16598  0.66569  Biso   1.000  Hf
  Hf10     1.0000 0.27218  0.05927  0.14501  Biso   1.000  Hf
  Hf11     1.0000 0.26468  0.36559  0.01975  Biso   1.000  Hf
  Hf12     1.0000 0.25917  0.41978  0.50970  Biso   1.000  Hf
  Hf13     1.0000 0.12489  0.51569  0.24979  Biso   1.000  Hf
  Hf14     1.0000 0.12489  0.73762  0.74975  Biso   1.000  Hf
  Hf15     1.0000 0.39503  0.75879  0.27350  Biso   1.000  Hf
  Hf16     1.0000 0.38904  0.49152  0.78705  Biso   1.000  Hf
  Hf17     1.0000 0.01723  0.66776  0.09063  Biso   1.000  Hf
  Hf18     1.0000 0.01704  0.59277  0.58380  Biso   1.000  Hf
  Hf19     1.0000 0.98565  0.83072  0.49559  Biso   1.000  Hf
  Hf20     1.0000 0.00679  0.89728  0.94772  Biso   1.000  Hf
  Hf21     1.0000 0.23258  0.66778  0.40890  Biso   1.000  Hf
  Hf22     1.0000 0.23277  0.59277  0.91574  Biso   1.000  Hf
  Hf23     1.0000 0.26413  0.83073  0.00387  Biso   1.000  Hf
  Hf24     1.0000 0.24296  0.89731  0.55177  Biso   1.000  Hf
  Hf25     1.0000 0.62486  0.01041  0.24971  Biso   1.000  Hf
  Hf26     1.0000 0.62494  0.24207  0.74967  Biso   1.000  Hf
  Hf27     1.0000 0.86688  0.25318  0.18894  Biso   1.000  Hf
  Hf28     1.0000 0.88183  0.00253  0.71135  Biso   1.000  Hf
  Hf29     1.0000 0.49977  0.15014  0.02104  Biso   1.000  Hf
  Hf30     1.0000 0.50311  0.10641  0.51815  Biso   1.000  Hf
  Hf31     1.0000 0.50092  0.35510  0.54486  Biso   1.000  Hf
  Hf32     1.0000 0.50389  0.39699  0.04700  Biso   1.000  Hf
  Hf33     1.0000 0.75006  0.15008  0.47842  Biso   1.000  Hf
  Hf34     1.0000 0.74670  0.10637  0.98129  Biso   1.000  Hf
  Hf35     1.0000 0.74887  0.35507  0.95474  Biso   1.000  Hf
  Hf36     1.0000 0.74589  0.39691  0.45265  Biso   1.000  Hf
  Hf37     1.0000 0.62492  0.50494  0.24980  Biso   1.000  Hf
  Hf38     1.0000 0.62488  0.76145  0.74964  Biso   1.000  Hf
  Hf39     1.0000 0.85476  0.75879  0.22585  Biso   1.000  Hf
  Hf40     1.0000 0.86077  0.49150  0.71249  Biso   1.000  Hf
  Hf41     1.0000 0.49766  0.64609  0.99084  Biso   1.000  Hf
  Hf42     1.0000 0.49540  0.61124  0.49136  Biso   1.000  Hf
  Hf43     1.0000 0.49532  0.86007  0.53601  Biso   1.000  Hf
  Hf44     1.0000 0.50683  0.89916  0.02650  Biso   1.000  Hf
  Hf45     1.0000 0.75214  0.64606  0.50862  Biso   1.000  Hf
  Hf46     1.0000 0.75444  0.61118  0.00814  Biso   1.000  Hf
  Hf47     1.0000 0.75446  0.86002  0.96327  Biso   1.000  Hf
  Hf48     1.0000 0.74295  0.89913  0.47279  Biso   1.000  Hf
  In1      1.0000 0.12493  0.19859  0.24978  Biso   1.000  In
