data_image0
_cell_length_a       5.03861
_cell_length_b       10.2263
_cell_length_c       10.058
_cell_angle_alpha    89.3629
_cell_angle_beta     92.8309
_cell_angle_gamma    91.7782

_symmetry_space_group_name_H-M    "P 1"
_symmetry_int_tables_number       1

loop_
  _symmetry_equiv_pos_as_xyz
  'x, y, z'

loop_
  _atom_site_label
  _atom_site_occupancy
  _atom_site_fract_x
  _atom_site_fract_y
  _atom_site_fract_z
  _atom_site_thermal_displace_type
  _atom_site_B_iso_or_equiv
  _atom_site_type_symbol
  Ir1      1.0000 0.24643  0.04219  0.13743  Biso   1.000  Ir
  Hf1      1.0000 0.21956  0.24885  0.38278  Biso   1.000  Hf
  Hf2      1.0000 0.74548  0.24279  0.12893  Biso   1.000  Hf
  Hf3      1.0000 0.71187  0.99671  0.38433  Biso   1.000  Hf
  Hf4      1.0000 0.03602  0.15668  0.00163  Biso   1.000  Hf
  Hf5      1.0000 0.96197  0.08925  0.25157  Biso   1.000  Hf
  Hf6      1.0000 0.07596  0.33701  0.21298  Biso   1.000  Hf
  Hf7      1.0000 0.07040  0.41544  0.96208  Biso   1.000  Hf
  Hf8      1.0000 0.48762  0.15815  0.26167  Biso   1.000  Hf
  Hf9      1.0000 0.55946  0.07090  0.03336  Biso   1.000  Hf
  Hf10     1.0000 0.56657  0.32359  0.96530  Biso   1.000  Hf
  Hf11     1.0000 0.57802  0.40860  0.21715  Biso   1.000  Hf
  Hf12     1.0000 0.24606  0.99155  0.64741  Biso   1.000  Hf
  Hf13     1.0000 0.22649  0.26077  0.85550  Biso   1.000  Hf
  Hf14     1.0000 0.70306  0.23515  0.62621  Biso   1.000  Hf
  Hf15     1.0000 0.77256  0.99169  0.89252  Biso   1.000  Hf
  Hf16     1.0000 0.93061  0.16117  0.48623  Biso   1.000  Hf
  Hf17     1.0000 0.98563  0.10800  0.74857  Biso   1.000  Hf
  Hf18     1.0000 0.97689  0.35826  0.72073  Biso   1.000  Hf
  Hf19     1.0000 0.04300  0.41330  0.46339  Biso   1.000  Hf
  Hf20     1.0000 0.48856  0.13469  0.76676  Biso   1.000  Hf
  Hf21     1.0000 0.43828  0.10293  0.50996  Biso   1.000  Hf
  Hf22     1.0000 0.53215  0.35129  0.47702  Biso   1.000  Hf
  Hf23     1.0000 0.47528  0.38844  0.72851  Biso   1.000  Hf
  Hf24     1.0000 0.25839  0.50331  0.12548  Biso   1.000  Hf
  Hf25     1.0000 0.24447  0.74953  0.36519  Biso   1.000  Hf
  Hf26     1.0000 0.78501  0.74311  0.12426  Biso   1.000  Hf
  Hf27     1.0000 0.73151  0.51101  0.37647  Biso   1.000  Hf
  Hf28     1.0000 0.05345  0.65803  0.01253  Biso   1.000  Hf
  Hf29     1.0000 0.00951  0.59601  0.25030  Biso   1.000  Hf
  Hf30     1.0000 0.90239  0.83640  0.29504  Biso   1.000  Hf
  Hf31     1.0000 0.02549  0.91247  0.03918  Biso   1.000  Hf
  Hf32     1.0000 0.49671  0.65328  0.24477  Biso   1.000  Hf
  Hf33     1.0000 0.54160  0.58516  0.99794  Biso   1.000  Hf
  Hf34     1.0000 0.56004  0.83357  0.98690  Biso   1.000  Hf
  Hf35     1.0000 0.40754  0.91402  0.26162  Biso   1.000  Hf
  Hf36     1.0000 0.22264  0.51223  0.61867  Biso   1.000  Hf
  Hf37     1.0000 0.28775  0.73703  0.87487  Biso   1.000  Hf
  Hf38     1.0000 0.74837  0.75596  0.62888  Biso   1.000  Hf
  Hf39     1.0000 0.74047  0.48759  0.86161  Biso   1.000  Hf
  Hf40     1.0000 0.98927  0.65791  0.50295  Biso   1.000  Hf
  Hf41     1.0000 0.99425  0.60631  0.74829  Biso   1.000  Hf
  Hf42     1.0000 0.01406  0.85305  0.77825  Biso   1.000  Hf
  Hf43     1.0000 0.93851  0.91445  0.53678  Biso   1.000  Hf
  Hf44     1.0000 0.49871  0.63576  0.74656  Biso   1.000  Hf
  Hf45     1.0000 0.48923  0.60736  0.49644  Biso   1.000  Hf
  Hf46     1.0000 0.45754  0.85232  0.50828  Biso   1.000  Hf
  Hf47     1.0000 0.51973  0.88767  0.75184  Biso   1.000  Hf
