data_image0
_cell_length_a       10.3556
_cell_length_b       5.34575
_cell_length_c       10.3144
_cell_angle_alpha    94.6753
_cell_angle_beta     87.3337
_cell_angle_gamma    101.499

_symmetry_space_group_name_H-M    "P 1"
_symmetry_int_tables_number       1

loop_
  _symmetry_equiv_pos_as_xyz
  'x, y, z'

loop_
  _atom_site_label
  _atom_site_occupancy
  _atom_site_fract_x
  _atom_site_fract_y
  _atom_site_fract_z
  _atom_site_thermal_displace_type
  _atom_site_B_iso_or_equiv
  _atom_site_type_symbol
  Hf1      1.0000 0.12115  0.00360  0.15935  Biso   1.000  Hf
  Hf2      1.0000 0.09449  0.55907  0.35913  Biso   1.000  Hf
  Hf3      1.0000 0.39357  0.45226  0.10387  Biso   1.000  Hf
  Hf4      1.0000 0.38322  0.00155  0.40058  Biso   1.000  Hf
  Hf5      1.0000 0.97226  0.39162  0.95436  Biso   1.000  Hf
  Hf6      1.0000 0.98795  0.21780  0.25862  Biso   1.000  Hf
  Hf7      1.0000 0.96303  0.73504  0.26600  Biso   1.000  Hf
  Hf8      1.0000 0.98853  0.87780  0.01902  Biso   1.000  Hf
  Hf9      1.0000 0.22939  0.39153  0.23146  Biso   1.000  Hf
  Hf10     1.0000 0.28581  0.07413  0.03235  Biso   1.000  Hf
  Hf11     1.0000 0.29218  0.57077  0.95986  Biso   1.000  Hf
  Hf12     1.0000 0.22213  0.88098  0.29140  Biso   1.000  Hf
  Hf13     1.0000 0.15008  0.95488  0.64283  Biso   1.000  Hf
  Hf14     1.0000 0.13278  0.47109  0.82804  Biso   1.000  Hf
  Hf15     1.0000 0.36400  0.50816  0.60083  Biso   1.000  Hf
  Hf16     1.0000 0.40479  0.92625  0.89785  Biso   1.000  Hf
  Hf17     1.0000 0.98996  0.33554  0.49627  Biso   1.000  Hf
  Hf18     1.0000 0.02242  0.12432  0.75905  Biso   1.000  Hf
  Hf19     1.0000 0.02007  0.64137  0.72465  Biso   1.000  Hf
  Hf20     1.0000 0.00048  0.82403  0.50541  Biso   1.000  Hf
  Hf21     1.0000 0.26466  0.27985  0.73691  Biso   1.000  Hf
  Hf22     1.0000 0.25418  0.18306  0.50377  Biso   1.000  Hf
  Hf23     1.0000 0.24487  0.68793  0.50096  Biso   1.000  Hf
  Hf24     1.0000 0.27070  0.78126  0.74827  Biso   1.000  Hf
  Hf25     1.0000 0.61324  0.04437  0.15418  Biso   1.000  Hf
  Hf26     1.0000 0.59858  0.57124  0.35844  Biso   1.000  Hf
  Hf27     1.0000 0.86089  0.53592  0.10324  Biso   1.000  Hf
  Hf28     1.0000 0.88203  0.00633  0.40163  Biso   1.000  Hf
  Hf29     1.0000 0.52600  0.26807  0.00002  Biso   1.000  Hf
  Hf30     1.0000 0.47149  0.23253  0.24993  Biso   1.000  Hf
  Hf31     1.0000 0.47311  0.73443  0.25303  Biso   1.000  Hf
  Hf32     1.0000 0.52283  0.76816  0.00799  Biso   1.000  Hf
  Hf33     1.0000 0.71562  0.39803  0.23714  Biso   1.000  Hf
  Hf34     1.0000 0.76297  0.16496  0.02768  Biso   1.000  Hf
  Hf35     1.0000 0.75699  0.67073  0.97932  Biso   1.000  Hf
  Hf36     1.0000 0.72179  0.89709  0.27460  Biso   1.000  Hf
  Hf37     1.0000 0.64677  0.96749  0.64693  Biso   1.000  Hf
  Hf38     1.0000 0.62361  0.47947  0.85008  Biso   1.000  Hf
  Hf39     1.0000 0.86155  0.51756  0.60578  Biso   1.000  Hf
  Hf40     1.0000 0.87619  0.00088  0.89703  Biso   1.000  Hf
  Hf41     1.0000 0.49657  0.33630  0.49218  Biso   1.000  Hf
  Hf42     1.0000 0.51807  0.13838  0.76030  Biso   1.000  Hf
  Hf43     1.0000 0.50928  0.65223  0.74486  Biso   1.000  Hf
  Hf44     1.0000 0.50154  0.82442  0.50748  Biso   1.000  Hf
  Hf45     1.0000 0.76294  0.29389  0.75537  Biso   1.000  Hf
  Hf46     1.0000 0.75035  0.18822  0.51329  Biso   1.000  Hf
  Hf47     1.0000 0.74350  0.69826  0.49811  Biso   1.000  Hf
  Hf48     1.0000 0.76479  0.78472  0.74575  Biso   1.000  Hf
  Ir1      1.0000 0.11488  0.45265  0.08290  Biso   1.000  Ir
