data_image0
_cell_length_a       10.058
_cell_length_b       10.2264
_cell_length_c       5.03862
_cell_angle_alpha    91.7789
_cell_angle_beta     92.8301
_cell_angle_gamma    89.3633

_symmetry_space_group_name_H-M    "P 1"
_symmetry_int_tables_number       1

loop_
  _symmetry_equiv_pos_as_xyz
  'x, y, z'

loop_
  _atom_site_label
  _atom_site_occupancy
  _atom_site_fract_x
  _atom_site_fract_y
  _atom_site_fract_z
  _atom_site_thermal_displace_type
  _atom_site_B_iso_or_equiv
  _atom_site_type_symbol
  Ir1      1.0000 0.13765  0.04263  0.24631  Biso   1.000  Ir
  Hf1      1.0000 0.12915  0.24321  0.74537  Biso   1.000  Hf
  Hf2      1.0000 0.38300  0.24929  0.21947  Biso   1.000  Hf
  Hf3      1.0000 0.38456  0.99713  0.71176  Biso   1.000  Hf
  Hf4      1.0000 0.00185  0.15712  0.03590  Biso   1.000  Hf
  Hf5      1.0000 0.03360  0.07132  0.55937  Biso   1.000  Hf
  Hf6      1.0000 0.96552  0.32402  0.56646  Biso   1.000  Hf
  Hf7      1.0000 0.96230  0.41588  0.07030  Biso   1.000  Hf
  Hf8      1.0000 0.26190  0.15858  0.48751  Biso   1.000  Hf
  Hf9      1.0000 0.25179  0.08968  0.96185  Biso   1.000  Hf
  Hf10     1.0000 0.21320  0.33745  0.07583  Biso   1.000  Hf
  Hf11     1.0000 0.21737  0.40902  0.57789  Biso   1.000  Hf
  Hf12     1.0000 0.12571  0.50375  0.25828  Biso   1.000  Hf
  Hf13     1.0000 0.12449  0.74353  0.78489  Biso   1.000  Hf
  Hf14     1.0000 0.36541  0.74997  0.24435  Biso   1.000  Hf
  Hf15     1.0000 0.37669  0.51142  0.73140  Biso   1.000  Hf
  Hf16     1.0000 0.01275  0.65846  0.05335  Biso   1.000  Hf
  Hf17     1.0000 0.99816  0.58559  0.54150  Biso   1.000  Hf
  Hf18     1.0000 0.98713  0.83399  0.55995  Biso   1.000  Hf
  Hf19     1.0000 0.03940  0.91291  0.02540  Biso   1.000  Hf
  Hf20     1.0000 0.24500  0.65371  0.49659  Biso   1.000  Hf
  Hf21     1.0000 0.25052  0.59644  0.00939  Biso   1.000  Hf
  Hf22     1.0000 0.29525  0.83683  0.90227  Biso   1.000  Hf
  Hf23     1.0000 0.26184  0.91446  0.40742  Biso   1.000  Hf
  Hf24     1.0000 0.64763  0.99198  0.24592  Biso   1.000  Hf
  Hf25     1.0000 0.62644  0.23555  0.70296  Biso   1.000  Hf
  Hf26     1.0000 0.85572  0.26121  0.22637  Biso   1.000  Hf
  Hf27     1.0000 0.89275  0.99211  0.77244  Biso   1.000  Hf
  Hf28     1.0000 0.48646  0.16159  0.93054  Biso   1.000  Hf
  Hf29     1.0000 0.51019  0.10335  0.43819  Biso   1.000  Hf
  Hf30     1.0000 0.47724  0.35171  0.53208  Biso   1.000  Hf
  Hf31     1.0000 0.46360  0.41374  0.04293  Biso   1.000  Hf
  Hf32     1.0000 0.76699  0.13511  0.48843  Biso   1.000  Hf
  Hf33     1.0000 0.74879  0.10843  0.98550  Biso   1.000  Hf
  Hf34     1.0000 0.72095  0.35869  0.97675  Biso   1.000  Hf
  Hf35     1.0000 0.72873  0.38887  0.47515  Biso   1.000  Hf
  Hf36     1.0000 0.61890  0.51267  0.22252  Biso   1.000  Hf
  Hf37     1.0000 0.62910  0.75637  0.74825  Biso   1.000  Hf
  Hf38     1.0000 0.87510  0.73748  0.28763  Biso   1.000  Hf
  Hf39     1.0000 0.86183  0.48801  0.74035  Biso   1.000  Hf
  Hf40     1.0000 0.50317  0.65834  0.98916  Biso   1.000  Hf
  Hf41     1.0000 0.49666  0.60779  0.48912  Biso   1.000  Hf
  Hf42     1.0000 0.50850  0.85274  0.45743  Biso   1.000  Hf
  Hf43     1.0000 0.53699  0.91487  0.93840  Biso   1.000  Hf
  Hf44     1.0000 0.74679  0.63619  0.49858  Biso   1.000  Hf
  Hf45     1.0000 0.74851  0.60674  0.99412  Biso   1.000  Hf
  Hf46     1.0000 0.77848  0.85348  0.01393  Biso   1.000  Hf
  Hf47     1.0000 0.75206  0.88810  0.51959  Biso   1.000  Hf
