data_image0
_cell_length_a       4.97128
_cell_length_b       10.3811
_cell_length_c       10.0021
_cell_angle_alpha    90.318
_cell_angle_beta     89.3876
_cell_angle_gamma    90.3853

_symmetry_space_group_name_H-M    "P 1"
_symmetry_int_tables_number       1

loop_
  _symmetry_equiv_pos_as_xyz
  'x, y, z'

loop_
  _atom_site_label
  _atom_site_occupancy
  _atom_site_fract_x
  _atom_site_fract_y
  _atom_site_fract_z
  _atom_site_thermal_displace_type
  _atom_site_B_iso_or_equiv
  _atom_site_type_symbol
  Ir1      1.0000 0.25065  0.03726  0.10646  Biso   1.000  Ir
  Hf1      1.0000 0.26613  0.22976  0.37693  Biso   1.000  Hf
  Hf2      1.0000 0.72526  0.26704  0.12539  Biso   1.000  Hf
  Hf3      1.0000 0.73382  0.48289  0.37682  Biso   1.000  Hf
  Hf4      1.0000 0.05752  0.18403  0.19703  Biso   1.000  Hf
  Hf5      1.0000 0.07208  0.06549  0.44849  Biso   1.000  Hf
  Hf6      1.0000 0.92746  0.43161  0.19504  Biso   1.000  Hf
  Hf7      1.0000 0.92798  0.31507  0.44370  Biso   1.000  Hf
  Hf8      1.0000 0.51839  0.10737  0.24403  Biso   1.000  Hf
  Hf9      1.0000 0.54586  0.13227  0.49546  Biso   1.000  Hf
  Hf10     1.0000 0.45886  0.38164  0.50045  Biso   1.000  Hf
  Hf11     1.0000 0.45704  0.36288  0.25013  Biso   1.000  Hf
  Hf12     1.0000 0.26560  0.01585  0.62494  Biso   1.000  Hf
  Hf13     1.0000 0.26353  0.23809  0.87163  Biso   1.000  Hf
  Hf14     1.0000 0.73180  0.26612  0.62414  Biso   1.000  Hf
  Hf15     1.0000 0.72993  0.48615  0.87551  Biso   1.000  Hf
  Hf16     1.0000 0.07250  0.18610  0.69337  Biso   1.000  Hf
  Hf17     1.0000 0.06884  0.06402  0.93532  Biso   1.000  Hf
  Hf18     1.0000 0.92860  0.43381  0.69579  Biso   1.000  Hf
  Hf19     1.0000 0.92225  0.31550  0.94448  Biso   1.000  Hf
  Hf20     1.0000 0.53976  0.11833  0.74780  Biso   1.000  Hf
  Hf21     1.0000 0.53418  0.13403  0.99620  Biso   1.000  Hf
  Hf22     1.0000 0.45579  0.38400  0.99926  Biso   1.000  Hf
  Hf23     1.0000 0.45871  0.36896  0.74915  Biso   1.000  Hf
  Hf24     1.0000 0.26805  0.51571  0.12807  Biso   1.000  Hf
  Hf25     1.0000 0.27776  0.73417  0.37664  Biso   1.000  Hf
  Hf26     1.0000 0.74428  0.76427  0.12502  Biso   1.000  Hf
  Hf27     1.0000 0.73670  0.98247  0.37229  Biso   1.000  Hf
  Hf28     1.0000 0.07809  0.68416  0.19755  Biso   1.000  Hf
  Hf29     1.0000 0.07426  0.56488  0.44599  Biso   1.000  Hf
  Hf30     1.0000 0.96150  0.93844  0.19117  Biso   1.000  Hf
  Hf31     1.0000 0.94025  0.81798  0.44826  Biso   1.000  Hf
  Hf32     1.0000 0.54322  0.60919  0.24946  Biso   1.000  Hf
  Hf33     1.0000 0.54499  0.63291  0.50053  Biso   1.000  Hf
  Hf34     1.0000 0.46578  0.88359  0.50324  Biso   1.000  Hf
  Hf35     1.0000 0.51070  0.85140  0.26021  Biso   1.000  Hf
  Hf36     1.0000 0.26832  0.51793  0.62569  Biso   1.000  Hf
  Hf37     1.0000 0.26385  0.73522  0.87943  Biso   1.000  Hf
  Hf38     1.0000 0.73648  0.76755  0.62625  Biso   1.000  Hf
  Hf39     1.0000 0.71722  0.98157  0.87554  Biso   1.000  Hf
  Hf40     1.0000 0.07135  0.68404  0.69762  Biso   1.000  Hf
  Hf41     1.0000 0.06675  0.56754  0.94851  Biso   1.000  Hf
  Hf42     1.0000 0.92579  0.93486  0.69600  Biso   1.000  Hf
  Hf43     1.0000 0.91566  0.81690  0.94045  Biso   1.000  Hf
  Hf44     1.0000 0.53880  0.61846  0.75137  Biso   1.000  Hf
  Hf45     1.0000 0.53715  0.63497  0.00079  Biso   1.000  Hf
  Hf46     1.0000 0.44731  0.88870  0.00914  Biso   1.000  Hf
  Hf47     1.0000 0.45595  0.86734  0.75290  Biso   1.000  Hf
