data_image0
_cell_length_a       10.0626
_cell_length_b       10.6078
_cell_length_c       5.02229
_cell_angle_alpha    89.7455
_cell_angle_beta     89.5445
_cell_angle_gamma    90.5653

_symmetry_space_group_name_H-M    "P 1"
_symmetry_int_tables_number       1

loop_
  _symmetry_equiv_pos_as_xyz
  'x, y, z'

loop_
  _atom_site_label
  _atom_site_occupancy
  _atom_site_fract_x
  _atom_site_fract_y
  _atom_site_fract_z
  _atom_site_thermal_displace_type
  _atom_site_B_iso_or_equiv
  _atom_site_type_symbol
  Hf1      1.0000 0.13683  0.00609  0.23730  Biso   1.000  Hf
  Hf2      1.0000 0.13544  0.20694  0.74379  Biso   1.000  Hf
  Hf3      1.0000 0.37586  0.26298  0.24473  Biso   1.000  Hf
  Hf4      1.0000 0.36973  0.48862  0.74521  Biso   1.000  Hf
  Hf5      1.0000 0.01420  0.16864  0.40370  Biso   1.000  Hf
  Hf6      1.0000 0.03068  0.05622  0.89943  Biso   1.000  Hf
  Hf7      1.0000 0.47518  0.42767  0.40964  Biso   1.000  Hf
  Hf8      1.0000 0.47286  0.31761  0.90376  Biso   1.000  Hf
  Hf9      1.0000 0.26336  0.09752  0.48936  Biso   1.000  Hf
  Hf10     1.0000 0.28786  0.11921  0.97837  Biso   1.000  Hf
  Hf11     1.0000 0.26123  0.42073  0.07066  Biso   1.000  Hf
  Hf12     1.0000 0.25653  0.34366  0.57692  Biso   1.000  Hf
  Hf13     1.0000 0.12124  0.54457  0.22774  Biso   1.000  Hf
  Hf14     1.0000 0.13102  0.74273  0.73949  Biso   1.000  Hf
  Hf15     1.0000 0.37088  0.76242  0.24349  Biso   1.000  Hf
  Hf16     1.0000 0.37247  0.97900  0.74228  Biso   1.000  Hf
  Hf17     1.0000 0.02769  0.69505  0.39090  Biso   1.000  Hf
  Hf18     1.0000 0.03216  0.57329  0.87117  Biso   1.000  Hf
  Hf19     1.0000 0.46853  0.92726  0.38109  Biso   1.000  Hf
  Hf20     1.0000 0.46842  0.81559  0.88885  Biso   1.000  Hf
  Hf21     1.0000 0.26550  0.61273  0.49127  Biso   1.000  Hf
  Hf22     1.0000 0.26353  0.65048  0.98341  Biso   1.000  Hf
  Hf23     1.0000 0.23064  0.88419  0.98337  Biso   1.000  Hf
  Hf24     1.0000 0.23488  0.85899  0.48217  Biso   1.000  Hf
  Hf25     1.0000 0.63325  0.01436  0.24811  Biso   1.000  Hf
  Hf26     1.0000 0.63106  0.23051  0.75005  Biso   1.000  Hf
  Hf27     1.0000 0.85343  0.26735  0.24470  Biso   1.000  Hf
  Hf28     1.0000 0.86501  0.48352  0.74566  Biso   1.000  Hf
  Hf29     1.0000 0.53212  0.17351  0.40475  Biso   1.000  Hf
  Hf30     1.0000 0.54013  0.06242  0.89019  Biso   1.000  Hf
  Hf31     1.0000 0.95119  0.44749  0.37976  Biso   1.000  Hf
  Hf32     1.0000 0.96748  0.31690  0.87848  Biso   1.000  Hf
  Hf33     1.0000 0.76587  0.11357  0.49582  Biso   1.000  Hf
  Hf34     1.0000 0.76866  0.13528  0.99554  Biso   1.000  Hf
  Hf35     1.0000 0.73022  0.38387  0.99928  Biso   1.000  Hf
  Hf36     1.0000 0.72865  0.36304  0.50190  Biso   1.000  Hf
  Hf37     1.0000 0.63445  0.51507  0.25369  Biso   1.000  Hf
  Hf38     1.0000 0.63418  0.73090  0.75255  Biso   1.000  Hf
  Hf39     1.0000 0.86038  0.76930  0.24722  Biso   1.000  Hf
  Hf40     1.0000 0.86313  0.98219  0.74368  Biso   1.000  Hf
  Hf41     1.0000 0.53168  0.67807  0.40319  Biso   1.000  Hf
  Hf42     1.0000 0.53287  0.56925  0.90941  Biso   1.000  Hf
  Hf43     1.0000 0.96652  0.93071  0.39859  Biso   1.000  Hf
  Hf44     1.0000 0.96292  0.81784  0.89464  Biso   1.000  Hf
  Hf45     1.0000 0.76477  0.61618  0.50354  Biso   1.000  Hf
  Hf46     1.0000 0.76877  0.63449  0.00084  Biso   1.000  Hf
  Hf47     1.0000 0.73062  0.88383  0.99851  Biso   1.000  Hf
  Hf48     1.0000 0.72879  0.86506  0.49915  Biso   1.000  Hf
  Ir1      1.0000 0.12238  0.30429  0.22615  Biso   1.000  Ir
