data_image0
_cell_length_a       10.1069
_cell_length_b       10.2547
_cell_length_c       10.4478
_cell_angle_alpha    89.9808
_cell_angle_beta     80.4189
_cell_angle_gamma    89.8147

_symmetry_space_group_name_H-M    "P 1"
_symmetry_int_tables_number       1

loop_
  _symmetry_equiv_pos_as_xyz
  'x, y, z'

loop_
  _atom_site_label
  _atom_site_occupancy
  _atom_site_fract_x
  _atom_site_fract_y
  _atom_site_fract_z
  _atom_site_thermal_displace_type
  _atom_site_B_iso_or_equiv
  _atom_site_type_symbol
  Ir1      1.0000 0.13082  0.01370  0.16208  Biso   1.000  Ir
  Hf1      1.0000 0.14013  0.23064  0.39433  Biso   1.000  Hf
  Hf2      1.0000 0.35929  0.26986  0.10254  Biso   1.000  Hf
  Hf3      1.0000 0.36163  0.47913  0.35336  Biso   1.000  Hf
  O1       1.0000 0.03957  0.16017  0.07985  Biso   1.000  O
  O2       1.0000 0.03235  0.08572  0.32424  Biso   1.000  O
  O3       1.0000 0.46380  0.41921  0.16954  Biso   1.000  O
  O4       1.0000 0.46373  0.33067  0.41966  Biso   1.000  O
  O5       1.0000 0.27449  0.12389  0.23688  Biso   1.000  O
  O6       1.0000 0.27707  0.12188  0.48793  Biso   1.000  O
  O7       1.0000 0.22345  0.38159  0.00940  Biso   1.000  O
  O8       1.0000 0.22448  0.37031  0.25893  Biso   1.000  O
  Hf4      1.0000 0.13829  0.02106  0.64437  Biso   1.000  Hf
  Hf5      1.0000 0.14075  0.22464  0.89685  Biso   1.000  Hf
  Hf6      1.0000 0.36108  0.27180  0.60419  Biso   1.000  Hf
  Hf7      1.0000 0.36071  0.47923  0.85458  Biso   1.000  Hf
  O9       1.0000 0.03457  0.16590  0.57485  Biso   1.000  O
  O10      1.0000 0.03496  0.08212  0.82657  Biso   1.000  O
  O11      1.0000 0.46423  0.41948  0.67002  Biso   1.000  O
  O12      1.0000 0.46647  0.33375  0.92067  Biso   1.000  O
  O13      1.0000 0.27599  0.12806  0.73724  Biso   1.000  O
  O14      1.0000 0.28734  0.12966  0.98179  Biso   1.000  O
  O15      1.0000 0.22268  0.37894  0.50896  Biso   1.000  O
  O16      1.0000 0.22430  0.37020  0.75986  Biso   1.000  O
  Hf8      1.0000 0.13923  0.52250  0.14567  Biso   1.000  Hf
  Hf9      1.0000 0.13747  0.72767  0.39691  Biso   1.000  Hf
  Hf10     1.0000 0.35951  0.77454  0.10322  Biso   1.000  Hf
  Hf11     1.0000 0.36117  0.97870  0.35342  Biso   1.000  Hf
  O17      1.0000 0.03562  0.66917  0.07976  Biso   1.000  O
  O18      1.0000 0.03529  0.58127  0.32988  Biso   1.000  O
  O19      1.0000 0.46420  0.91852  0.17117  Biso   1.000  O
  O20      1.0000 0.46365  0.82957  0.41905  Biso   1.000  O
  O21      1.0000 0.27656  0.63104  0.24107  Biso   1.000  O
  O22      1.0000 0.27649  0.62062  0.49113  Biso   1.000  O
  O23      1.0000 0.22121  0.88800  0.01161  Biso   1.000  O
  O24      1.0000 0.21785  0.87127  0.25833  Biso   1.000  O
  Hf12     1.0000 0.13947  0.52127  0.64692  Biso   1.000  Hf
  Hf13     1.0000 0.13896  0.73118  0.89636  Biso   1.000  Hf
  Hf14     1.0000 0.36143  0.77177  0.60455  Biso   1.000  Hf
  Hf15     1.0000 0.36062  0.98143  0.85471  Biso   1.000  Hf
  O25      1.0000 0.03454  0.66746  0.57960  Biso   1.000  O
  O26      1.0000 0.03626  0.58227  0.83054  Biso   1.000  O
  O27      1.0000 0.46419  0.91998  0.66924  Biso   1.000  O
  O28      1.0000 0.46202  0.83110  0.91969  Biso   1.000  O
  O29      1.0000 0.27658  0.62963  0.74064  Biso   1.000  O
  O30      1.0000 0.27653  0.62398  0.99051  Biso   1.000  O
  O31      1.0000 0.22360  0.87888  0.50852  Biso   1.000  O
  O32      1.0000 0.22362  0.87133  0.75950  Biso   1.000  O
  Hf16     1.0000 0.63821  0.02186  0.14523  Biso   1.000  Hf
  Hf17     1.0000 0.63854  0.22903  0.39567  Biso   1.000  Hf
  Hf18     1.0000 0.86651  0.26753  0.10541  Biso   1.000  Hf
  Hf19     1.0000 0.86084  0.47840  0.35378  Biso   1.000  Hf
  O33      1.0000 0.53627  0.16999  0.08067  Biso   1.000  O
  O34      1.0000 0.53537  0.08044  0.33069  Biso   1.000  O
  O35      1.0000 0.96598  0.41806  0.17113  Biso   1.000  O
  O36      1.0000 0.96477  0.33205  0.42095  Biso   1.000  O
  O37      1.0000 0.77550  0.12755  0.24103  Biso   1.000  O
  O38      1.0000 0.77693  0.12043  0.49028  Biso   1.000  O
  O39      1.0000 0.72602  0.37811  0.01037  Biso   1.000  O
  O40      1.0000 0.72480  0.36960  0.25946  Biso   1.000  O
  Hf20     1.0000 0.63823  0.02174  0.64662  Biso   1.000  Hf
  Hf21     1.0000 0.63963  0.22956  0.89663  Biso   1.000  Hf
  Hf22     1.0000 0.86138  0.27160  0.60435  Biso   1.000  Hf
  Hf23     1.0000 0.86301  0.47733  0.85580  Biso   1.000  Hf
  O41      1.0000 0.53626  0.17013  0.58022  Biso   1.000  O
  O42      1.0000 0.53757  0.08088  0.83026  Biso   1.000  O
  O43      1.0000 0.96622  0.41631  0.67256  Biso   1.000  O
  O44      1.0000 0.96706  0.33024  0.92399  Biso   1.000  O
  O45      1.0000 0.77726  0.12960  0.74011  Biso   1.000  O
  O46      1.0000 0.77692  0.12069  0.99072  Biso   1.000  O
  O47      1.0000 0.72343  0.37869  0.50987  Biso   1.000  O
  O48      1.0000 0.72452  0.37162  0.76028  Biso   1.000  O
  Hf24     1.0000 0.63824  0.52002  0.14509  Biso   1.000  Hf
  Hf25     1.0000 0.63831  0.72741  0.39570  Biso   1.000  Hf
  Hf26     1.0000 0.86041  0.76991  0.10299  Biso   1.000  Hf
  Hf27     1.0000 0.85638  0.97772  0.35534  Biso   1.000  Hf
  O49      1.0000 0.53512  0.66952  0.07997  Biso   1.000  O
  O50      1.0000 0.53654  0.57927  0.33039  Biso   1.000  O
  O51      1.0000 0.96442  0.91818  0.16949  Biso   1.000  O
  O52      1.0000 0.96452  0.83372  0.42093  Biso   1.000  O
  O53      1.0000 0.77617  0.62836  0.24013  Biso   1.000  O
  O54      1.0000 0.77680  0.62076  0.49061  Biso   1.000  O
  O55      1.0000 0.72207  0.87912  0.00954  Biso   1.000  O
  O56      1.0000 0.72507  0.87035  0.25930  Biso   1.000  O
  Hf28     1.0000 0.63900  0.52129  0.64668  Biso   1.000  Hf
  Hf29     1.0000 0.63781  0.72874  0.89620  Biso   1.000  Hf
  Hf30     1.0000 0.86021  0.77112  0.60489  Biso   1.000  Hf
  Hf31     1.0000 0.86118  0.97913  0.85409  Biso   1.000  Hf
  O57      1.0000 0.53619  0.66926  0.57996  Biso   1.000  O
  O58      1.0000 0.53536  0.58178  0.82962  Biso   1.000  O
  O59      1.0000 0.96434  0.91745  0.67050  Biso   1.000  O
  O60      1.0000 0.96345  0.83145  0.92080  Biso   1.000  O
  O61      1.0000 0.77697  0.62874  0.74125  Biso   1.000  O
  O62      1.0000 0.77678  0.62089  0.99060  Biso   1.000  O
  O63      1.0000 0.72202  0.87867  0.50949  Biso   1.000  O
  O64      1.0000 0.72317  0.87098  0.75964  Biso   1.000  O
