data_image0
_cell_length_a       9.99093
_cell_length_b       10.3922
_cell_length_c       10.0733
_cell_angle_alpha    90.0186
_cell_angle_beta     89.7844
_cell_angle_gamma    89.9984

_symmetry_space_group_name_H-M    "P 1"
_symmetry_int_tables_number       1

loop_
  _symmetry_equiv_pos_as_xyz
  'x, y, z'

loop_
  _atom_site_label
  _atom_site_occupancy
  _atom_site_fract_x
  _atom_site_fract_y
  _atom_site_fract_z
  _atom_site_thermal_displace_type
  _atom_site_B_iso_or_equiv
  _atom_site_type_symbol
  K1       1.0000 0.09628  0.99260  0.13096  Biso   1.000  K 
  Hf1      1.0000 0.13455  0.01913  0.63013  Biso   1.000  Hf
  Hf2      1.0000 0.13952  0.51606  0.13132  Biso   1.000  Hf
  Hf3      1.0000 0.13606  0.51765  0.62553  Biso   1.000  Hf
  Hf4      1.0000 0.63601  0.01949  0.11813  Biso   1.000  Hf
  Hf5      1.0000 0.62883  0.01743  0.62584  Biso   1.000  Hf
  Hf6      1.0000 0.62988  0.51347  0.12618  Biso   1.000  Hf
  Hf7      1.0000 0.63398  0.51664  0.62506  Biso   1.000  Hf
  Hf8      1.0000 0.13587  0.23307  0.37514  Biso   1.000  Hf
  Hf9      1.0000 0.13712  0.23317  0.87545  Biso   1.000  Hf
  Hf10     1.0000 0.13995  0.73565  0.38141  Biso   1.000  Hf
  Hf11     1.0000 0.14438  0.73503  0.87640  Biso   1.000  Hf
  Hf12     1.0000 0.63290  0.23369  0.37253  Biso   1.000  Hf
  Hf13     1.0000 0.63412  0.23313  0.87468  Biso   1.000  Hf
  Hf14     1.0000 0.63182  0.72991  0.37507  Biso   1.000  Hf
  Hf15     1.0000 0.63088  0.73438  0.87227  Biso   1.000  Hf
  Hf16     1.0000 0.36182  0.26200  0.12732  Biso   1.000  Hf
  Hf17     1.0000 0.36600  0.26665  0.62558  Biso   1.000  Hf
  Hf18     1.0000 0.36735  0.76560  0.12616  Biso   1.000  Hf
  Hf19     1.0000 0.36773  0.77018  0.62605  Biso   1.000  Hf
  Hf20     1.0000 0.86627  0.26885  0.12710  Biso   1.000  Hf
  Hf21     1.0000 0.86713  0.27083  0.62331  Biso   1.000  Hf
  Hf22     1.0000 0.88787  0.72816  0.08853  Biso   1.000  Hf
  Hf23     1.0000 0.86859  0.76465  0.62366  Biso   1.000  Hf
  Hf24     1.0000 0.36688  0.48204  0.37679  Biso   1.000  Hf
  Hf25     1.0000 0.36624  0.48088  0.87668  Biso   1.000  Hf
  Hf26     1.0000 0.36501  0.98518  0.37270  Biso   1.000  Hf
  Hf27     1.0000 0.36170  0.98478  0.88086  Biso   1.000  Hf
  Hf28     1.0000 0.86691  0.48673  0.37481  Biso   1.000  Hf
  Hf29     1.0000 0.86367  0.47862  0.87395  Biso   1.000  Hf
  Hf30     1.0000 0.86323  0.99111  0.39459  Biso   1.000  Hf
  Hf31     1.0000 0.86189  0.98400  0.86740  Biso   1.000  Hf
  Hf32     1.0000 0.02549  0.19982  0.21000  Biso   1.000  Hf
  Hf33     1.0000 0.04054  0.19240  0.68338  Biso   1.000  Hf
  Hf34     1.0000 0.04796  0.69296  0.19949  Biso   1.000  Hf
  Hf35     1.0000 0.03720  0.68447  0.69834  Biso   1.000  Hf
  Hf36     1.0000 0.54091  0.18528  0.18885  Biso   1.000  Hf
  Hf37     1.0000 0.53612  0.18564  0.69407  Biso   1.000  Hf
  Hf38     1.0000 0.53736  0.68127  0.19818  Biso   1.000  Hf
  Hf39     1.0000 0.53544  0.68350  0.69383  Biso   1.000  Hf
  Hf40     1.0000 0.03686  0.06662  0.44503  Biso   1.000  Hf
  Hf41     1.0000 0.03493  0.07025  0.89860  Biso   1.000  Hf
  Hf42     1.0000 0.03609  0.56872  0.44787  Biso   1.000  Hf
  Hf43     1.0000 0.01449  0.58722  0.96717  Biso   1.000  Hf
  Hf44     1.0000 0.53693  0.06696  0.44511  Biso   1.000  Hf
  Hf45     1.0000 0.53986  0.06538  0.94074  Biso   1.000  Hf
  Hf46     1.0000 0.53747  0.56674  0.44418  Biso   1.000  Hf
  Hf47     1.0000 0.52924  0.56816  0.94806  Biso   1.000  Hf
  Hf48     1.0000 0.46394  0.43021  0.19709  Biso   1.000  Hf
  Hf49     1.0000 0.46531  0.43457  0.69471  Biso   1.000  Hf
  Hf50     1.0000 0.47674  0.93037  0.19899  Biso   1.000  Hf
  Hf51     1.0000 0.46446  0.93416  0.69943  Biso   1.000  Hf
  Hf52     1.0000 0.96183  0.44355  0.19400  Biso   1.000  Hf
  Hf53     1.0000 0.96712  0.43587  0.69917  Biso   1.000  Hf
  Hf54     1.0000 0.87209  0.88746  0.21447  Biso   1.000  Hf
  Hf55     1.0000 0.95742  0.93694  0.68175  Biso   1.000  Hf
  Hf56     1.0000 0.46590  0.31623  0.44547  Biso   1.000  Hf
  Hf57     1.0000 0.46503  0.31625  0.94327  Biso   1.000  Hf
  Hf58     1.0000 0.46962  0.81781  0.45119  Biso   1.000  Hf
  Hf59     1.0000 0.47156  0.82015  0.94817  Biso   1.000  Hf
  Hf60     1.0000 0.96617  0.32259  0.44804  Biso   1.000  Hf
  Hf61     1.0000 0.96811  0.32201  0.94787  Biso   1.000  Hf
  Hf62     1.0000 0.96906  0.82030  0.44718  Biso   1.000  Hf
  Hf63     1.0000 0.97553  0.82799  0.93965  Biso   1.000  Hf
  Hf64     1.0000 0.28381  0.12914  0.25894  Biso   1.000  Hf
  Hf65     1.0000 0.27427  0.12009  0.74889  Biso   1.000  Hf
  Hf66     1.0000 0.27417  0.61330  0.25199  Biso   1.000  Hf
  Hf67     1.0000 0.27131  0.61858  0.75172  Biso   1.000  Hf
  Hf68     1.0000 0.77191  0.11562  0.25140  Biso   1.000  Hf
  Hf69     1.0000 0.76882  0.11931  0.74626  Biso   1.000  Hf
  Hf70     1.0000 0.77167  0.61856  0.24308  Biso   1.000  Hf
  Hf71     1.0000 0.77185  0.61627  0.74534  Biso   1.000  Hf
  Hf72     1.0000 0.27022  0.13139  0.50358  Biso   1.000  Hf
  Hf73     1.0000 0.27621  0.13647  0.99361  Biso   1.000  Hf
  Hf74     1.0000 0.27383  0.63293  0.50250  Biso   1.000  Hf
  Hf75     1.0000 0.26852  0.62600  0.00155  Biso   1.000  Hf
  Hf76     1.0000 0.76827  0.13708  0.50132  Biso   1.000  Hf
  Hf77     1.0000 0.77666  0.13152  0.99752  Biso   1.000  Hf
  Hf78     1.0000 0.77048  0.63443  0.49549  Biso   1.000  Hf
  Hf79     1.0000 0.75876  0.62031  0.98908  Biso   1.000  Hf
  Hf80     1.0000 0.23169  0.38380  0.50043  Biso   1.000  Hf
  Hf81     1.0000 0.22839  0.38352  0.00163  Biso   1.000  Hf
  Hf82     1.0000 0.23133  0.88552  0.50387  Biso   1.000  Hf
  Hf83     1.0000 0.24164  0.86862  0.99486  Biso   1.000  Hf
  Hf84     1.0000 0.73038  0.38499  0.49867  Biso   1.000  Hf
  Hf85     1.0000 0.72670  0.37993  0.99796  Biso   1.000  Hf
  Hf86     1.0000 0.72897  0.88243  0.50006  Biso   1.000  Hf
  Hf87     1.0000 0.73542  0.87251  0.99805  Biso   1.000  Hf
  Hf88     1.0000 0.22775  0.37051  0.25132  Biso   1.000  Hf
  Hf89     1.0000 0.23015  0.36925  0.74945  Biso   1.000  Hf
  Hf90     1.0000 0.24983  0.85511  0.26200  Biso   1.000  Hf
  Hf91     1.0000 0.22878  0.87111  0.74964  Biso   1.000  Hf
  Hf92     1.0000 0.73040  0.36896  0.25005  Biso   1.000  Hf
  Hf93     1.0000 0.73021  0.36839  0.74881  Biso   1.000  Hf
  Hf94     1.0000 0.73006  0.87812  0.24542  Biso   1.000  Hf
  Hf95     1.0000 0.72941  0.86631  0.74672  Biso   1.000  Hf
