data_image0
_cell_length_a       10.0477
_cell_length_b       10.2074
_cell_length_c       10.0477
_cell_angle_alpha    89.9996
_cell_angle_beta     89.9997
_cell_angle_gamma    90.0003

_symmetry_space_group_name_H-M    "P 1"
_symmetry_int_tables_number       1

loop_
  _symmetry_equiv_pos_as_xyz
  'x, y, z'

loop_
  _atom_site_label
  _atom_site_occupancy
  _atom_site_fract_x
  _atom_site_fract_y
  _atom_site_fract_z
  _atom_site_thermal_displace_type
  _atom_site_B_iso_or_equiv
  _atom_site_type_symbol
  K1       1.0000 0.12595  0.00048  0.12593  Biso   1.000  K 
  Hf1      1.0000 0.12595  0.00047  0.62593  Biso   1.000  Hf
  Hf2      1.0000 0.12595  0.50048  0.12594  Biso   1.000  Hf
  Hf3      1.0000 0.12595  0.50047  0.62593  Biso   1.000  Hf
  Hf4      1.0000 0.62595  0.00048  0.12593  Biso   1.000  Hf
  Hf5      1.0000 0.62595  0.00048  0.62593  Biso   1.000  Hf
  Hf6      1.0000 0.62595  0.50048  0.12594  Biso   1.000  Hf
  Hf7      1.0000 0.62595  0.50047  0.62594  Biso   1.000  Hf
  Hf8      1.0000 0.12499  0.25251  0.37514  Biso   1.000  Hf
  Hf9      1.0000 0.12691  0.25251  0.87673  Biso   1.000  Hf
  Hf10     1.0000 0.12691  0.74844  0.37514  Biso   1.000  Hf
  Hf11     1.0000 0.12499  0.74844  0.87673  Biso   1.000  Hf
  Hf12     1.0000 0.62624  0.24943  0.37586  Biso   1.000  Hf
  Hf13     1.0000 0.62565  0.24943  0.87600  Biso   1.000  Hf
  Hf14     1.0000 0.62565  0.75152  0.37587  Biso   1.000  Hf
  Hf15     1.0000 0.62625  0.75152  0.87600  Biso   1.000  Hf
  Hf16     1.0000 0.37516  0.25251  0.12497  Biso   1.000  Hf
  Hf17     1.0000 0.37589  0.24942  0.62623  Biso   1.000  Hf
  Hf18     1.0000 0.37516  0.74845  0.12689  Biso   1.000  Hf
  Hf19     1.0000 0.37589  0.75152  0.62564  Biso   1.000  Hf
  Hf20     1.0000 0.87674  0.25251  0.12689  Biso   1.000  Hf
  Hf21     1.0000 0.87601  0.24943  0.62563  Biso   1.000  Hf
  Hf22     1.0000 0.87674  0.74844  0.12497  Biso   1.000  Hf
  Hf23     1.0000 0.87601  0.75152  0.62623  Biso   1.000  Hf
  Hf24     1.0000 0.37474  0.00160  0.37471  Biso   1.000  Hf
  Hf25     1.0000 0.37473  0.99935  0.87715  Biso   1.000  Hf
  Hf26     1.0000 0.37724  0.49924  0.37723  Biso   1.000  Hf
  Hf27     1.0000 0.37724  0.50171  0.87464  Biso   1.000  Hf
  Hf28     1.0000 0.87716  0.99934  0.37472  Biso   1.000  Hf
  Hf29     1.0000 0.87716  0.00160  0.87715  Biso   1.000  Hf
  Hf30     1.0000 0.87465  0.50171  0.37723  Biso   1.000  Hf
  Hf31     1.0000 0.87466  0.49924  0.87464  Biso   1.000  Hf
  Hf32     1.0000 0.99119  0.15321  0.99117  Biso   1.000  Hf
  Hf33     1.0000 0.00973  0.14842  0.51007  Biso   1.000  Hf
  Hf34     1.0000 0.00714  0.64017  0.00713  Biso   1.000  Hf
  Hf35     1.0000 0.00229  0.64683  0.50591  Biso   1.000  Hf
  Hf36     1.0000 0.51008  0.14842  0.00971  Biso   1.000  Hf
  Hf37     1.0000 0.50712  0.14842  0.50710  Biso   1.000  Hf
  Hf38     1.0000 0.50592  0.64683  0.00228  Biso   1.000  Hf
  Hf39     1.0000 0.50158  0.64751  0.50157  Biso   1.000  Hf
  Hf40     1.0000 0.98516  0.12631  0.26672  Biso   1.000  Hf
  Hf41     1.0000 0.99603  0.10264  0.75036  Biso   1.000  Hf
  Hf42     1.0000 0.99796  0.60400  0.25393  Biso   1.000  Hf
  Hf43     1.0000 0.00101  0.60317  0.75514  Biso   1.000  Hf
  Hf44     1.0000 0.50152  0.10265  0.25585  Biso   1.000  Hf
  Hf45     1.0000 0.49771  0.10323  0.75417  Biso   1.000  Hf
  Hf46     1.0000 0.49675  0.60317  0.25087  Biso   1.000  Hf
  Hf47     1.0000 0.50074  0.60367  0.75115  Biso   1.000  Hf
  Hf48     1.0000 0.00714  0.36078  0.24475  Biso   1.000  Hf
  Hf49     1.0000 0.00229  0.35412  0.74596  Biso   1.000  Hf
  Hf50     1.0000 0.99118  0.84774  0.26069  Biso   1.000  Hf
  Hf51     1.0000 0.00973  0.85253  0.74180  Biso   1.000  Hf
  Hf52     1.0000 0.50592  0.35413  0.24959  Biso   1.000  Hf
  Hf53     1.0000 0.50159  0.35345  0.75029  Biso   1.000  Hf
  Hf54     1.0000 0.51007  0.85254  0.24216  Biso   1.000  Hf
  Hf55     1.0000 0.50712  0.85253  0.74477  Biso   1.000  Hf
  Hf56     1.0000 0.99796  0.39695  0.99795  Biso   1.000  Hf
  Hf57     1.0000 0.00101  0.39778  0.49673  Biso   1.000  Hf
  Hf58     1.0000 0.98516  0.87463  0.98514  Biso   1.000  Hf
  Hf59     1.0000 0.99603  0.89831  0.50150  Biso   1.000  Hf
  Hf60     1.0000 0.49675  0.39778  0.00099  Biso   1.000  Hf
  Hf61     1.0000 0.50073  0.39728  0.50072  Biso   1.000  Hf
  Hf62     1.0000 0.50152  0.89831  0.99602  Biso   1.000  Hf
  Hf63     1.0000 0.49771  0.89772  0.49769  Biso   1.000  Hf
  Hf64     1.0000 0.26071  0.15321  0.26069  Biso   1.000  Hf
  Hf65     1.0000 0.24217  0.14842  0.74180  Biso   1.000  Hf
  Hf66     1.0000 0.24476  0.64018  0.24474  Biso   1.000  Hf
  Hf67     1.0000 0.24961  0.64683  0.74596  Biso   1.000  Hf
  Hf68     1.0000 0.74182  0.14842  0.24215  Biso   1.000  Hf
  Hf69     1.0000 0.74478  0.14842  0.74476  Biso   1.000  Hf
  Hf70     1.0000 0.74598  0.64683  0.24959  Biso   1.000  Hf
  Hf71     1.0000 0.75031  0.64750  0.75029  Biso   1.000  Hf
  Hf72     1.0000 0.26673  0.12632  0.98514  Biso   1.000  Hf
  Hf73     1.0000 0.25587  0.10264  0.50150  Biso   1.000  Hf
  Hf74     1.0000 0.25394  0.60401  0.99794  Biso   1.000  Hf
  Hf75     1.0000 0.25088  0.60317  0.49673  Biso   1.000  Hf
  Hf76     1.0000 0.75037  0.10264  0.99601  Biso   1.000  Hf
  Hf77     1.0000 0.75419  0.10323  0.49769  Biso   1.000  Hf
  Hf78     1.0000 0.75515  0.60317  0.00100  Biso   1.000  Hf
  Hf79     1.0000 0.75116  0.60367  0.50072  Biso   1.000  Hf
  Hf80     1.0000 0.24476  0.36078  0.00713  Biso   1.000  Hf
  Hf81     1.0000 0.24961  0.35412  0.50591  Biso   1.000  Hf
  Hf82     1.0000 0.26071  0.84774  0.99118  Biso   1.000  Hf
  Hf83     1.0000 0.24217  0.85253  0.51007  Biso   1.000  Hf
  Hf84     1.0000 0.74598  0.35412  0.00227  Biso   1.000  Hf
  Hf85     1.0000 0.75031  0.35345  0.50158  Biso   1.000  Hf
  Hf86     1.0000 0.74181  0.85253  0.00971  Biso   1.000  Hf
  Hf87     1.0000 0.74478  0.85253  0.50710  Biso   1.000  Hf
  Hf88     1.0000 0.25394  0.39695  0.25393  Biso   1.000  Hf
  Hf89     1.0000 0.25088  0.39778  0.75514  Biso   1.000  Hf
  Hf90     1.0000 0.26673  0.87464  0.26672  Biso   1.000  Hf
  Hf91     1.0000 0.25587  0.89831  0.75036  Biso   1.000  Hf
  Hf92     1.0000 0.75515  0.39778  0.25087  Biso   1.000  Hf
  Hf93     1.0000 0.75116  0.39728  0.75115  Biso   1.000  Hf
  Hf94     1.0000 0.75037  0.89831  0.25585  Biso   1.000  Hf
  Hf95     1.0000 0.75419  0.89772  0.75417  Biso   1.000  Hf
