data_image0
_cell_length_a       10.1011
_cell_length_b       10.4208
_cell_length_c       10.1222
_cell_angle_alpha    89.9079
_cell_angle_beta     89.9139
_cell_angle_gamma    94.3043

_symmetry_space_group_name_H-M    "P 1"
_symmetry_int_tables_number       1

loop_
  _symmetry_equiv_pos_as_xyz
  'x, y, z'

loop_
  _atom_site_label
  _atom_site_occupancy
  _atom_site_fract_x
  _atom_site_fract_y
  _atom_site_fract_z
  _atom_site_thermal_displace_type
  _atom_site_B_iso_or_equiv
  _atom_site_type_symbol
  Hf1      1.0000 0.14386  0.97374  0.15265  Biso   1.000  Hf
  Hf2      1.0000 0.11082  0.23315  0.37816  Biso   1.000  Hf
  Hf3      1.0000 0.35650  0.26918  0.11221  Biso   1.000  Hf
  Hf4      1.0000 0.36326  0.01881  0.39726  Biso   1.000  Hf
  Hf5      1.0000 0.93936  0.19340  0.95752  Biso   1.000  Hf
  Hf6      1.0000 0.01862  0.06585  0.27855  Biso   1.000  Hf
  Hf7      1.0000 0.94777  0.31780  0.28443  Biso   1.000  Hf
  Hf8      1.0000 0.96133  0.42974  0.03586  Biso   1.000  Hf
  Hf9      1.0000 0.25537  0.13768  0.25593  Biso   1.000  Hf
  Hf10     1.0000 0.21994  0.10837  0.00237  Biso   1.000  Hf
  Hf11     1.0000 0.22551  0.36413  0.97929  Biso   1.000  Hf
  Hf12     1.0000 0.22554  0.39279  0.23565  Biso   1.000  Hf
  Hf13     1.0000 0.13811  0.97928  0.64742  Biso   1.000  Hf
  Hf14     1.0000 0.11341  0.23732  0.84110  Biso   1.000  Hf
  Hf15     1.0000 0.35112  0.26769  0.61071  Biso   1.000  Hf
  Hf16     1.0000 0.36116  0.01923  0.89799  Biso   1.000  Hf
  Hf17     1.0000 0.97076  0.16711  0.50593  Biso   1.000  Hf
  Hf18     1.0000 0.01643  0.06922  0.76779  Biso   1.000  Hf
  Hf19     1.0000 0.97176  0.33643  0.75502  Biso   1.000  Hf
  Hf20     1.0000 0.96664  0.42490  0.52029  Biso   1.000  Hf
  Hf21     1.0000 0.26052  0.13591  0.74925  Biso   1.000  Hf
  Hf22     1.0000 0.22280  0.11174  0.50549  Biso   1.000  Hf
  Hf23     1.0000 0.22377  0.36346  0.48864  Biso   1.000  Hf
  Hf24     1.0000 0.23140  0.38876  0.73327  Biso   1.000  Hf
  Hf25     1.0000 0.13461  0.52452  0.10689  Biso   1.000  Hf
  Hf26     1.0000 0.15478  0.73028  0.36352  Biso   1.000  Hf
  Hf27     1.0000 0.38939  0.76519  0.10665  Biso   1.000  Hf
  Hf28     1.0000 0.36927  0.48572  0.35666  Biso   1.000  Hf
  Hf29     1.0000 0.03940  0.67854  0.02095  Biso   1.000  Hf
  Hf30     1.0000 0.03791  0.57117  0.27864  Biso   1.000  Hf
  Hf31     1.0000 0.03360  0.81906  0.24227  Biso   1.000  Hf
  Hf32     1.0000 0.98393  0.93836  0.02587  Biso   1.000  Hf
  Hf33     1.0000 0.27975  0.63854  0.23481  Biso   1.000  Hf
  Hf34     1.0000 0.27888  0.61583  0.98419  Biso   1.000  Hf
  Hf35     1.0000 0.24347  0.86134  0.00406  Biso   1.000  Hf
  Hf36     1.0000 0.28366  0.88379  0.25716  Biso   1.000  Hf
  Hf37     1.0000 0.12877  0.51185  0.60985  Biso   1.000  Hf
  Hf38     1.0000 0.15777  0.73370  0.85800  Biso   1.000  Hf
  Hf39     1.0000 0.38817  0.76329  0.60600  Biso   1.000  Hf
  Hf40     1.0000 0.37054  0.48528  0.85780  Biso   1.000  Hf
  Hf41     1.0000 0.03815  0.67076  0.52453  Biso   1.000  Hf
  Hf42     1.0000 0.04060  0.57276  0.78274  Biso   1.000  Hf
  Hf43     1.0000 0.02993  0.82163  0.74398  Biso   1.000  Hf
  Hf44     1.0000 0.98874  0.92120  0.51611  Biso   1.000  Hf
  Hf45     1.0000 0.28286  0.63594  0.73535  Biso   1.000  Hf
  Hf46     1.0000 0.27384  0.61022  0.48562  Biso   1.000  Hf
  Hf47     1.0000 0.24491  0.86113  0.50302  Biso   1.000  Hf
  Hf48     1.0000 0.27909  0.88626  0.75464  Biso   1.000  Hf
  Hf49     1.0000 0.63706  0.98017  0.14728  Biso   1.000  Hf
  Hf50     1.0000 0.61364  0.23352  0.35641  Biso   1.000  Hf
  Hf51     1.0000 0.82227  0.26888  0.10586  Biso   1.000  Hf
  Hf52     1.0000 0.86317  0.01406  0.39819  Biso   1.000  Hf
  Hf53     1.0000 0.46818  0.17942  0.98626  Biso   1.000  Hf
  Hf54     1.0000 0.51072  0.07528  0.26383  Biso   1.000  Hf
  Hf55     1.0000 0.46139  0.32655  0.27681  Biso   1.000  Hf
  Hf56     1.0000 0.46385  0.43156  0.03182  Biso   1.000  Hf
  Hf57     1.0000 0.75447  0.13397  0.24798  Biso   1.000  Hf
  Hf58     1.0000 0.71095  0.11223  0.00083  Biso   1.000  Hf
  Hf59     1.0000 0.71158  0.37150  0.98010  Biso   1.000  Hf
  Hf60     1.0000 0.71761  0.38847  0.23180  Biso   1.000  Hf
  Hf61     1.0000 0.63635  0.98200  0.64486  Biso   1.000  Hf
  Hf62     1.0000 0.61445  0.23387  0.85189  Biso   1.000  Hf
  Hf63     1.0000 0.84384  0.26970  0.60641  Biso   1.000  Hf
  Hf64     1.0000 0.86052  0.01891  0.89419  Biso   1.000  Hf
  Hf65     1.0000 0.47174  0.17479  0.49304  Biso   1.000  Hf
  Hf66     1.0000 0.51343  0.07389  0.76468  Biso   1.000  Hf
  Hf67     1.0000 0.46713  0.32896  0.76932  Biso   1.000  Hf
  Hf68     1.0000 0.46542  0.42796  0.52780  Biso   1.000  Hf
  Hf69     1.0000 0.75701  0.13748  0.74638  Biso   1.000  Hf
  Hf70     1.0000 0.72116  0.11259  0.49896  Biso   1.000  Hf
  Hf71     1.0000 0.71875  0.36411  0.48337  Biso   1.000  Hf
  Hf72     1.0000 0.72919  0.38717  0.73347  Biso   1.000  Hf
  Hf73     1.0000 0.63205  0.52220  0.10424  Biso   1.000  Hf
  Hf74     1.0000 0.65595  0.73124  0.35935  Biso   1.000  Hf
  Hf75     1.0000 0.88685  0.76804  0.10575  Biso   1.000  Hf
  Hf76     1.0000 0.86897  0.48202  0.35273  Biso   1.000  Hf
  Hf77     1.0000 0.53964  0.67703  0.01848  Biso   1.000  Hf
  Hf78     1.0000 0.53606  0.57456  0.27591  Biso   1.000  Hf
  Hf79     1.0000 0.53301  0.82337  0.24237  Biso   1.000  Hf
  Hf80     1.0000 0.48567  0.92767  0.01826  Biso   1.000  Hf
  Hf81     1.0000 0.78116  0.63700  0.23287  Biso   1.000  Hf
  Hf82     1.0000 0.77924  0.61737  0.98296  Biso   1.000  Hf
  Hf83     1.0000 0.74361  0.86403  0.00003  Biso   1.000  Hf
  Hf84     1.0000 0.78088  0.88573  0.25309  Biso   1.000  Hf
  Hf85     1.0000 0.63188  0.51451  0.60692  Biso   1.000  Hf
  Hf86     1.0000 0.65704  0.73369  0.85642  Biso   1.000  Hf
  Hf87     1.0000 0.88736  0.76308  0.60615  Biso   1.000  Hf
  Hf88     1.0000 0.87124  0.48513  0.85869  Biso   1.000  Hf
  Hf89     1.0000 0.53779  0.67244  0.52017  Biso   1.000  Hf
  Hf90     1.0000 0.54033  0.57275  0.77891  Biso   1.000  Hf
  Hf91     1.0000 0.53102  0.82344  0.74101  Biso   1.000  Hf
  Hf92     1.0000 0.48811  0.92464  0.51477  Biso   1.000  Hf
  Hf93     1.0000 0.78334  0.63514  0.73510  Biso   1.000  Hf
  Hf94     1.0000 0.77577  0.61137  0.48384  Biso   1.000  Hf
  Hf95     1.0000 0.74442  0.86091  0.50105  Biso   1.000  Hf
  Hf96     1.0000 0.77826  0.88726  0.75059  Biso   1.000  Hf
  K1       1.0000 0.08242  0.23685  0.12072  Biso   1.000  K 
