data_image0
_cell_length_a       10.0888
_cell_length_b       10.348
_cell_length_c       5.18863
_cell_angle_alpha    86.4371
_cell_angle_beta     89.6425
_cell_angle_gamma    91.2238

_symmetry_space_group_name_H-M    "P 1"
_symmetry_int_tables_number       1

loop_
  _symmetry_equiv_pos_as_xyz
  'x, y, z'

loop_
  _atom_site_label
  _atom_site_occupancy
  _atom_site_fract_x
  _atom_site_fract_y
  _atom_site_fract_z
  _atom_site_thermal_displace_type
  _atom_site_B_iso_or_equiv
  _atom_site_type_symbol
  Hf1      1.0000 0.11086  0.96001  0.22967  Biso   1.000  Hf
  Hf2      1.0000 0.12092  0.24309  0.80222  Biso   1.000  Hf
  Hf3      1.0000 0.40421  0.25754  0.23475  Biso   1.000  Hf
  Hf4      1.0000 0.37297  0.02219  0.77183  Biso   1.000  Hf
  Hf5      1.0000 0.98063  0.11318  0.04690  Biso   1.000  Hf
  Hf6      1.0000 0.03508  0.05562  0.57041  Biso   1.000  Hf
  Hf7      1.0000 0.95124  0.30932  0.58646  Biso   1.000  Hf
  Hf8      1.0000 0.99102  0.38405  0.02435  Biso   1.000  Hf
  Hf9      1.0000 0.28797  0.17844  0.58470  Biso   1.000  Hf
  Hf10     1.0000 0.24658  0.10395  0.04853  Biso   1.000  Hf
  Hf11     1.0000 0.25132  0.36841  0.01389  Biso   1.000  Hf
  Hf12     1.0000 0.20819  0.41521  0.53654  Biso   1.000  Hf
  Hf13     1.0000 0.14014  0.52315  0.20056  Biso   1.000  Hf
  Hf14     1.0000 0.14674  0.75889  0.73370  Biso   1.000  Hf
  Hf15     1.0000 0.39284  0.78141  0.27924  Biso   1.000  Hf
  Hf16     1.0000 0.36086  0.49019  0.73485  Biso   1.000  Hf
  Hf17     1.0000 0.00612  0.62762  0.91227  Biso   1.000  Hf
  Hf18     1.0000 0.97651  0.56091  0.39937  Biso   1.000  Hf
  Hf19     1.0000 0.01823  0.80765  0.43511  Biso   1.000  Hf
  Hf20     1.0000 0.99897  0.86629  0.95311  Biso   1.000  Hf
  Hf21     1.0000 0.24203  0.65807  0.43534  Biso   1.000  Hf
  Hf22     1.0000 0.26368  0.62212  0.93304  Biso   1.000  Hf
  Hf23     1.0000 0.25267  0.86216  0.00141  Biso   1.000  Hf
  Hf24     1.0000 0.26097  0.90800  0.50298  Biso   1.000  Hf
  Hf25     1.0000 0.64404  0.98573  0.28859  Biso   1.000  Hf
  Hf26     1.0000 0.63189  0.24280  0.69033  Biso   1.000  Hf
  Hf27     1.0000 0.83593  0.26035  0.20232  Biso   1.000  Hf
  Hf28     1.0000 0.87006  0.00407  0.77943  Biso   1.000  Hf
  Hf29     1.0000 0.48545  0.17993  0.92978  Biso   1.000  Hf
  Hf30     1.0000 0.51378  0.11397  0.45678  Biso   1.000  Hf
  Hf31     1.0000 0.49015  0.37146  0.51497  Biso   1.000  Hf
  Hf32     1.0000 0.48607  0.43067  0.03358  Biso   1.000  Hf
  Hf33     1.0000 0.76347  0.12842  0.49024  Biso   1.000  Hf
  Hf34     1.0000 0.73140  0.11087  0.98971  Biso   1.000  Hf
  Hf35     1.0000 0.73850  0.35738  0.91413  Biso   1.000  Hf
  Hf36     1.0000 0.73622  0.38803  0.42155  Biso   1.000  Hf
  Hf37     1.0000 0.60513  0.52682  0.27352  Biso   1.000  Hf
  Hf38     1.0000 0.64566  0.74228  0.75235  Biso   1.000  Hf
  Hf39     1.0000 0.88824  0.71644  0.19518  Biso   1.000  Hf
  Hf40     1.0000 0.87794  0.48186  0.71885  Biso   1.000  Hf
  Hf41     1.0000 0.52396  0.68738  0.06623  Biso   1.000  Hf
  Hf42     1.0000 0.49786  0.62093  0.55076  Biso   1.000  Hf
  Hf43     1.0000 0.51269  0.86550  0.54930  Biso   1.000  Hf
  Hf44     1.0000 0.48855  0.93695  0.06398  Biso   1.000  Hf
  Hf45     1.0000 0.75025  0.63854  0.49305  Biso   1.000  Hf
  Hf46     1.0000 0.75401  0.59784  0.98980  Biso   1.000  Hf
  Hf47     1.0000 0.74848  0.85514  0.04206  Biso   1.000  Hf
  Hf48     1.0000 0.76248  0.88554  0.54999  Biso   1.000  Hf
  La1      1.0000 0.11596  0.23958  0.30862  Biso   1.000  La
