data_image0
_cell_length_a       10.1551
_cell_length_b       5.18598
_cell_length_c       10.155
_cell_angle_alpha    90
_cell_angle_beta     90.0001
_cell_angle_gamma    90.0005

_symmetry_space_group_name_H-M    "P 1"
_symmetry_int_tables_number       1

loop_
  _symmetry_equiv_pos_as_xyz
  'x, y, z'

loop_
  _atom_site_label
  _atom_site_occupancy
  _atom_site_fract_x
  _atom_site_fract_y
  _atom_site_fract_z
  _atom_site_thermal_displace_type
  _atom_site_B_iso_or_equiv
  _atom_site_type_symbol
  Hf1      1.0000 0.12491  0.00012  0.12491  Biso   1.000  Hf
  Hf2      1.0000 0.12491  0.50010  0.40061  Biso   1.000  Hf
  Hf3      1.0000 0.40061  0.50010  0.12490  Biso   1.000  Hf
  Hf4      1.0000 0.37373  0.00535  0.37373  Biso   1.000  Hf
  Hf5      1.0000 0.97904  0.29979  0.97904  Biso   1.000  Hf
  Hf6      1.0000 0.00032  0.19327  0.24951  Biso   1.000  Hf
  Hf7      1.0000 0.97904  0.70045  0.27077  Biso   1.000  Hf
  Hf8      1.0000 0.00032  0.80698  0.00031  Biso   1.000  Hf
  Hf9      1.0000 0.27078  0.29978  0.27077  Biso   1.000  Hf
  Hf10     1.0000 0.24950  0.19326  0.00031  Biso   1.000  Hf
  Hf11     1.0000 0.27078  0.70044  0.97904  Biso   1.000  Hf
  Hf12     1.0000 0.24950  0.80697  0.24951  Biso   1.000  Hf
  Hf13     1.0000 0.12491  0.00011  0.62491  Biso   1.000  Hf
  Hf14     1.0000 0.12491  0.50011  0.84921  Biso   1.000  Hf
  Hf15     1.0000 0.37985  0.50011  0.62491  Biso   1.000  Hf
  Hf16     1.0000 0.37373  0.99487  0.87609  Biso   1.000  Hf
  Hf17     1.0000 0.98772  0.28497  0.49720  Biso   1.000  Hf
  Hf18     1.0000 0.00665  0.21193  0.74263  Biso   1.000  Hf
  Hf19     1.0000 0.98772  0.71525  0.75262  Biso   1.000  Hf
  Hf20     1.0000 0.00665  0.78827  0.50719  Biso   1.000  Hf
  Hf21     1.0000 0.26210  0.28497  0.75262  Biso   1.000  Hf
  Hf22     1.0000 0.24317  0.21193  0.50719  Biso   1.000  Hf
  Hf23     1.0000 0.26209  0.71524  0.49720  Biso   1.000  Hf
  Hf24     1.0000 0.24317  0.78828  0.74263  Biso   1.000  Hf
  Hf25     1.0000 0.62491  0.00011  0.12491  Biso   1.000  Hf
  Hf26     1.0000 0.62491  0.50011  0.37985  Biso   1.000  Hf
  Hf27     1.0000 0.84921  0.50011  0.12491  Biso   1.000  Hf
  Hf28     1.0000 0.87609  0.99488  0.37373  Biso   1.000  Hf
  Hf29     1.0000 0.49720  0.28496  0.98772  Biso   1.000  Hf
  Hf30     1.0000 0.50719  0.21194  0.24317  Biso   1.000  Hf
  Hf31     1.0000 0.49719  0.71525  0.26209  Biso   1.000  Hf
  Hf32     1.0000 0.50720  0.78827  0.00664  Biso   1.000  Hf
  Hf33     1.0000 0.75262  0.28496  0.26210  Biso   1.000  Hf
  Hf34     1.0000 0.74262  0.21194  0.00665  Biso   1.000  Hf
  Hf35     1.0000 0.75262  0.71525  0.98772  Biso   1.000  Hf
  Hf36     1.0000 0.74262  0.78827  0.24317  Biso   1.000  Hf
  Hf37     1.0000 0.62491  0.00011  0.62491  Biso   1.000  Hf
  Hf38     1.0000 0.62491  0.50011  0.86997  Biso   1.000  Hf
  Hf39     1.0000 0.86997  0.50011  0.62491  Biso   1.000  Hf
  Hf40     1.0000 0.87609  0.00535  0.87609  Biso   1.000  Hf
  Hf41     1.0000 0.49124  0.29752  0.49125  Biso   1.000  Hf
  Hf42     1.0000 0.50656  0.20738  0.74326  Biso   1.000  Hf
  Hf43     1.0000 0.49125  0.70270  0.75857  Biso   1.000  Hf
  Hf44     1.0000 0.50656  0.79285  0.50655  Biso   1.000  Hf
  Hf45     1.0000 0.75857  0.29752  0.75857  Biso   1.000  Hf
  Hf46     1.0000 0.74326  0.20737  0.50655  Biso   1.000  Hf
  Hf47     1.0000 0.75857  0.70271  0.49125  Biso   1.000  Hf
  Hf48     1.0000 0.74326  0.79285  0.74326  Biso   1.000  Hf
  La1      1.0000 0.12491  0.50012  0.12491  Biso   1.000  La
