data_image0
_cell_length_a       10.0515
_cell_length_b       10.4223
_cell_length_c       10.1083
_cell_angle_alpha    89.8002
_cell_angle_beta     90.3068
_cell_angle_gamma    90.2827

_symmetry_space_group_name_H-M    "P 1"
_symmetry_int_tables_number       1

loop_
  _symmetry_equiv_pos_as_xyz
  'x, y, z'

loop_
  _atom_site_label
  _atom_site_occupancy
  _atom_site_fract_x
  _atom_site_fract_y
  _atom_site_fract_z
  _atom_site_thermal_displace_type
  _atom_site_B_iso_or_equiv
  _atom_site_type_symbol
  Hf1      1.0000 0.13736  0.97790  0.10959  Biso   1.000  Hf
  Hf2      1.0000 0.12524  0.22857  0.39722  Biso   1.000  Hf
  Hf3      1.0000 0.38049  0.27584  0.11415  Biso   1.000  Hf
  Hf4      1.0000 0.36724  0.48527  0.37440  Biso   1.000  Hf
  Hf5      1.0000 0.95668  0.17647  0.27675  Biso   1.000  Hf
  Hf6      1.0000 0.03543  0.06119  0.46609  Biso   1.000  Hf
  Hf7      1.0000 0.46905  0.43880  0.19388  Biso   1.000  Hf
  Hf8      1.0000 0.46754  0.32142  0.44777  Biso   1.000  Hf
  Hf9      1.0000 0.23017  0.09817  0.25288  Biso   1.000  Hf
  Hf10     1.0000 0.27671  0.13187  0.49936  Biso   1.000  Hf
  Hf11     1.0000 0.23564  0.38553  0.50029  Biso   1.000  Hf
  Hf12     1.0000 0.24037  0.36685  0.25511  Biso   1.000  Hf
  Hf13     1.0000 0.13900  0.00854  0.62714  Biso   1.000  Hf
  Hf14     1.0000 0.13704  0.23315  0.84979  Biso   1.000  Hf
  Hf15     1.0000 0.37310  0.26798  0.62159  Biso   1.000  Hf
  Hf16     1.0000 0.37038  0.48836  0.86882  Biso   1.000  Hf
  Hf17     1.0000 0.03360  0.17688  0.68976  Biso   1.000  Hf
  Hf18     1.0000 0.03524  0.06917  0.94784  Biso   1.000  Hf
  Hf19     1.0000 0.47086  0.43472  0.69402  Biso   1.000  Hf
  Hf20     1.0000 0.46901  0.32025  0.93769  Biso   1.000  Hf
  Hf21     1.0000 0.27287  0.11525  0.74466  Biso   1.000  Hf
  Hf22     1.0000 0.27306  0.12730  0.99479  Biso   1.000  Hf
  Hf23     1.0000 0.23611  0.39334  0.99154  Biso   1.000  Hf
  Hf24     1.0000 0.23821  0.36762  0.74233  Biso   1.000  Hf
  Hf25     1.0000 0.13565  0.53000  0.12288  Biso   1.000  Hf
  Hf26     1.0000 0.13334  0.73524  0.37684  Biso   1.000  Hf
  Hf27     1.0000 0.37464  0.75930  0.12173  Biso   1.000  Hf
  Hf28     1.0000 0.36278  0.98737  0.36924  Biso   1.000  Hf
  Hf29     1.0000 0.03462  0.68488  0.19854  Biso   1.000  Hf
  Hf30     1.0000 0.03519  0.57095  0.44355  Biso   1.000  Hf
  Hf31     1.0000 0.45848  0.93207  0.19294  Biso   1.000  Hf
  Hf32     1.0000 0.46818  0.82020  0.44335  Biso   1.000  Hf
  Hf33     1.0000 0.27475  0.61645  0.24614  Biso   1.000  Hf
  Hf34     1.0000 0.27079  0.63432  0.49608  Biso   1.000  Hf
  Hf35     1.0000 0.23389  0.88405  0.49408  Biso   1.000  Hf
  Hf36     1.0000 0.23570  0.85292  0.24321  Biso   1.000  Hf
  Hf37     1.0000 0.13215  0.51392  0.62008  Biso   1.000  Hf
  Hf38     1.0000 0.13376  0.73181  0.86657  Biso   1.000  Hf
  Hf39     1.0000 0.37227  0.76567  0.61906  Biso   1.000  Hf
  Hf40     1.0000 0.37232  0.98361  0.87061  Biso   1.000  Hf
  Hf41     1.0000 0.03589  0.68237  0.69075  Biso   1.000  Hf
  Hf42     1.0000 0.03389  0.57220  0.94703  Biso   1.000  Hf
  Hf43     1.0000 0.47118  0.93243  0.69506  Biso   1.000  Hf
  Hf44     1.0000 0.47861  0.82252  0.94943  Biso   1.000  Hf
  Hf45     1.0000 0.26877  0.61440  0.74374  Biso   1.000  Hf
  Hf46     1.0000 0.27076  0.63601  0.99355  Biso   1.000  Hf
  Hf47     1.0000 0.24359  0.87308  0.98655  Biso   1.000  Hf
  Hf48     1.0000 0.23866  0.86241  0.74358  Biso   1.000  Hf
  Hf49     1.0000 0.62465  0.00692  0.11882  Biso   1.000  Hf
  Hf50     1.0000 0.62687  0.23013  0.37901  Biso   1.000  Hf
  Hf51     1.0000 0.83055  0.26121  0.13153  Biso   1.000  Hf
  Hf52     1.0000 0.86779  0.48251  0.37530  Biso   1.000  Hf
  Hf53     1.0000 0.51656  0.17409  0.20663  Biso   1.000  Hf
  Hf54     1.0000 0.53043  0.06706  0.45115  Biso   1.000  Hf
  Hf55     1.0000 0.96325  0.42901  0.19509  Biso   1.000  Hf
  Hf56     1.0000 0.97468  0.33395  0.46999  Biso   1.000  Hf
  Hf57     1.0000 0.73741  0.10813  0.24777  Biso   1.000  Hf
  Hf58     1.0000 0.76997  0.13970  0.49800  Biso   1.000  Hf
  Hf59     1.0000 0.73340  0.38519  0.50168  Biso   1.000  Hf
  Hf60     1.0000 0.71922  0.37194  0.25680  Biso   1.000  Hf
  Hf61     1.0000 0.63787  0.01534  0.62244  Biso   1.000  Hf
  Hf62     1.0000 0.63611  0.23360  0.87039  Biso   1.000  Hf
  Hf63     1.0000 0.86478  0.27052  0.62879  Biso   1.000  Hf
  Hf64     1.0000 0.86768  0.48161  0.87872  Biso   1.000  Hf
  Hf65     1.0000 0.53936  0.18365  0.69397  Biso   1.000  Hf
  Hf66     1.0000 0.53478  0.07117  0.94335  Biso   1.000  Hf
  Hf67     1.0000 0.97105  0.43283  0.70645  Biso   1.000  Hf
  Hf68     1.0000 0.95810  0.31369  0.93632  Biso   1.000  Hf
  Hf69     1.0000 0.77274  0.11626  0.74907  Biso   1.000  Hf
  Hf70     1.0000 0.76596  0.12915  0.99799  Biso   1.000  Hf
  Hf71     1.0000 0.72271  0.38500  0.00051  Biso   1.000  Hf
  Hf72     1.0000 0.73171  0.36936  0.75029  Biso   1.000  Hf
  Hf73     1.0000 0.63595  0.52178  0.12686  Biso   1.000  Hf
  Hf74     1.0000 0.63793  0.73804  0.37720  Biso   1.000  Hf
  Hf75     1.0000 0.86487  0.76619  0.12772  Biso   1.000  Hf
  Hf76     1.0000 0.87349  0.00047  0.36511  Biso   1.000  Hf
  Hf77     1.0000 0.54100  0.68617  0.19787  Biso   1.000  Hf
  Hf78     1.0000 0.53695  0.57098  0.44630  Biso   1.000  Hf
  Hf79     1.0000 0.96536  0.93396  0.19532  Biso   1.000  Hf
  Hf80     1.0000 0.96814  0.82272  0.44456  Biso   1.000  Hf
  Hf81     1.0000 0.77348  0.61830  0.25031  Biso   1.000  Hf
  Hf82     1.0000 0.77262  0.63567  0.49854  Biso   1.000  Hf
  Hf83     1.0000 0.73530  0.88906  0.49641  Biso   1.000  Hf
  Hf84     1.0000 0.73093  0.86579  0.24622  Biso   1.000  Hf
  Hf85     1.0000 0.63748  0.51864  0.62325  Biso   1.000  Hf
  Hf86     1.0000 0.63935  0.73376  0.87262  Biso   1.000  Hf
  Hf87     1.0000 0.86956  0.77031  0.62036  Biso   1.000  Hf
  Hf88     1.0000 0.86986  0.98435  0.87594  Biso   1.000  Hf
  Hf89     1.0000 0.53656  0.68341  0.69685  Biso   1.000  Hf
  Hf90     1.0000 0.53441  0.57271  0.94883  Biso   1.000  Hf
  Hf91     1.0000 0.97452  0.92686  0.70725  Biso   1.000  Hf
  Hf92     1.0000 0.98025  0.82377  0.95894  Biso   1.000  Hf
  Hf93     1.0000 0.77279  0.61682  0.74865  Biso   1.000  Hf
  Hf94     1.0000 0.77239  0.63457  0.99936  Biso   1.000  Hf
  Hf95     1.0000 0.73724  0.88172  0.99716  Biso   1.000  Hf
  Hf96     1.0000 0.73568  0.86690  0.74697  Biso   1.000  Hf
  La1      1.0000 0.10256  0.24862  0.11684  Biso   1.000  La
