data_image0
_cell_length_a       10.0921
_cell_length_b       5.12532
_cell_length_c       10.0921
_cell_angle_alpha    90
_cell_angle_beta     90
_cell_angle_gamma    90.0001

_symmetry_space_group_name_H-M    "P 1"
_symmetry_int_tables_number       1

loop_
  _symmetry_equiv_pos_as_xyz
  'x, y, z'

loop_
  _atom_site_label
  _atom_site_occupancy
  _atom_site_fract_x
  _atom_site_fract_y
  _atom_site_fract_z
  _atom_site_thermal_displace_type
  _atom_site_B_iso_or_equiv
  _atom_site_type_symbol
  La1      1.0000 0.12491  0.00011  0.12491  Biso   1.000  La
  Hf1      1.0000 0.12491  0.50011  0.37985  Biso   1.000  Hf
  Hf2      1.0000 0.37985  0.50011  0.12491  Biso   1.000  Hf
  Hf3      1.0000 0.37724  0.00398  0.37724  Biso   1.000  Hf
  Hf4      1.0000 0.99752  0.29927  0.99751  Biso   1.000  Hf
  Hf5      1.0000 0.98545  0.23252  0.26436  Biso   1.000  Hf
  Hf6      1.0000 0.99752  0.70094  0.25230  Biso   1.000  Hf
  Hf7      1.0000 0.98545  0.76769  0.98546  Biso   1.000  Hf
  Hf8      1.0000 0.25230  0.29927  0.25230  Biso   1.000  Hf
  Hf9      1.0000 0.26436  0.23252  0.98546  Biso   1.000  Hf
  Hf10     1.0000 0.25230  0.70094  0.99751  Biso   1.000  Hf
  Hf11     1.0000 0.26436  0.76769  0.26436  Biso   1.000  Hf
  Hf12     1.0000 0.12491  0.00011  0.62491  Biso   1.000  Hf
  Hf13     1.0000 0.12491  0.50011  0.86997  Biso   1.000  Hf
  Hf14     1.0000 0.37485  0.50011  0.62491  Biso   1.000  Hf
  Hf15     1.0000 0.37724  0.99624  0.87257  Biso   1.000  Hf
  Hf16     1.0000 0.00618  0.29576  0.51128  Biso   1.000  Hf
  Hf17     1.0000 0.99839  0.20381  0.75409  Biso   1.000  Hf
  Hf18     1.0000 0.00618  0.70446  0.73853  Biso   1.000  Hf
  Hf19     1.0000 0.99839  0.79641  0.49573  Biso   1.000  Hf
  Hf20     1.0000 0.24364  0.29576  0.73854  Biso   1.000  Hf
  Hf21     1.0000 0.25143  0.20381  0.49573  Biso   1.000  Hf
  Hf22     1.0000 0.24364  0.70446  0.51128  Biso   1.000  Hf
  Hf23     1.0000 0.25142  0.79641  0.75409  Biso   1.000  Hf
  Hf24     1.0000 0.62491  0.00011  0.12491  Biso   1.000  Hf
  Hf25     1.0000 0.62491  0.50011  0.37485  Biso   1.000  Hf
  Hf26     1.0000 0.86996  0.50011  0.12491  Biso   1.000  Hf
  Hf27     1.0000 0.87257  0.99623  0.37724  Biso   1.000  Hf
  Hf28     1.0000 0.51129  0.29575  0.00618  Biso   1.000  Hf
  Hf29     1.0000 0.49572  0.20381  0.25142  Biso   1.000  Hf
  Hf30     1.0000 0.51129  0.70446  0.24364  Biso   1.000  Hf
  Hf31     1.0000 0.49572  0.79641  0.99840  Biso   1.000  Hf
  Hf32     1.0000 0.73853  0.29575  0.24364  Biso   1.000  Hf
  Hf33     1.0000 0.75410  0.20381  0.99840  Biso   1.000  Hf
  Hf34     1.0000 0.73853  0.70446  0.00618  Biso   1.000  Hf
  Hf35     1.0000 0.75410  0.79640  0.25142  Biso   1.000  Hf
  Hf36     1.0000 0.62491  0.00011  0.62491  Biso   1.000  Hf
  Hf37     1.0000 0.62491  0.50011  0.87496  Biso   1.000  Hf
  Hf38     1.0000 0.87496  0.50011  0.62491  Biso   1.000  Hf
  Hf39     1.0000 0.87257  0.00398  0.87257  Biso   1.000  Hf
  Hf40     1.0000 0.50308  0.29732  0.50307  Biso   1.000  Hf
  Hf41     1.0000 0.49863  0.20419  0.75118  Biso   1.000  Hf
  Hf42     1.0000 0.50308  0.70290  0.74674  Biso   1.000  Hf
  Hf43     1.0000 0.49863  0.79603  0.49864  Biso   1.000  Hf
  Hf44     1.0000 0.74674  0.29732  0.74675  Biso   1.000  Hf
  Hf45     1.0000 0.75119  0.20419  0.49864  Biso   1.000  Hf
  Hf46     1.0000 0.74674  0.70290  0.50307  Biso   1.000  Hf
  Hf47     1.0000 0.75119  0.79602  0.75118  Biso   1.000  Hf
