data_image0
_cell_length_a       4.99073
_cell_length_b       10.4094
_cell_length_c       10.0215
_cell_angle_alpha    89.6463
_cell_angle_beta     90.3019
_cell_angle_gamma    89.9796

_symmetry_space_group_name_H-M    "P 1"
_symmetry_int_tables_number       1

loop_
  _symmetry_equiv_pos_as_xyz
  'x, y, z'

loop_
  _atom_site_label
  _atom_site_occupancy
  _atom_site_fract_x
  _atom_site_fract_y
  _atom_site_fract_z
  _atom_site_thermal_displace_type
  _atom_site_B_iso_or_equiv
  _atom_site_type_symbol
  Hf1      1.0000 0.26347  0.01854  0.12059  Biso   1.000  Hf
  Hf2      1.0000 0.26434  0.23020  0.38135  Biso   1.000  Hf
  Hf3      1.0000 0.70168  0.26157  0.12573  Biso   1.000  Hf
  Hf4      1.0000 0.73772  0.48225  0.37287  Biso   1.000  Hf
  Hf5      1.0000 0.04239  0.17923  0.20548  Biso   1.000  Hf
  Hf6      1.0000 0.07154  0.06434  0.44779  Biso   1.000  Hf
  Hf7      1.0000 0.92350  0.43281  0.19039  Biso   1.000  Hf
  Hf8      1.0000 0.93248  0.31788  0.44824  Biso   1.000  Hf
  Hf9      1.0000 0.52417  0.11656  0.25070  Biso   1.000  Hf
  Hf10     1.0000 0.54574  0.13149  0.49870  Biso   1.000  Hf
  Hf11     1.0000 0.46418  0.38166  0.49866  Biso   1.000  Hf
  Hf12     1.0000 0.43441  0.36901  0.24712  Biso   1.000  Hf
  Hf13     1.0000 0.27206  0.01319  0.62539  Biso   1.000  Hf
  Hf14     1.0000 0.27445  0.22755  0.86939  Biso   1.000  Hf
  Hf15     1.0000 0.73669  0.26550  0.62556  Biso   1.000  Hf
  Hf16     1.0000 0.73859  0.47895  0.87975  Biso   1.000  Hf
  Hf17     1.0000 0.07694  0.18083  0.69101  Biso   1.000  Hf
  Hf18     1.0000 0.08335  0.06158  0.93890  Biso   1.000  Hf
  Hf19     1.0000 0.94117  0.42968  0.70225  Biso   1.000  Hf
  Hf20     1.0000 0.94284  0.31169  0.95536  Biso   1.000  Hf
  Hf21     1.0000 0.54833  0.11422  0.74575  Biso   1.000  Hf
  Hf22     1.0000 0.56455  0.12548  0.99277  Biso   1.000  Hf
  Hf23     1.0000 0.45052  0.38220  0.00080  Biso   1.000  Hf
  Hf24     1.0000 0.47106  0.36538  0.74982  Biso   1.000  Hf
  Hf25     1.0000 0.27068  0.53232  0.12706  Biso   1.000  Hf
  Hf26     1.0000 0.27173  0.73537  0.37908  Biso   1.000  Hf
  Hf27     1.0000 0.73022  0.76992  0.12638  Biso   1.000  Hf
  Hf28     1.0000 0.73275  0.98411  0.37357  Biso   1.000  Hf
  Hf29     1.0000 0.07036  0.68666  0.19901  Biso   1.000  Hf
  Hf30     1.0000 0.07176  0.56569  0.44514  Biso   1.000  Hf
  Hf31     1.0000 0.92564  0.93502  0.19322  Biso   1.000  Hf
  Hf32     1.0000 0.93046  0.81628  0.44473  Biso   1.000  Hf
  Hf33     1.0000 0.54681  0.62217  0.25201  Biso   1.000  Hf
  Hf34     1.0000 0.54297  0.63102  0.50073  Biso   1.000  Hf
  Hf35     1.0000 0.46450  0.88203  0.49935  Biso   1.000  Hf
  Hf36     1.0000 0.45783  0.86825  0.24988  Biso   1.000  Hf
  Hf37     1.0000 0.27473  0.51396  0.62661  Biso   1.000  Hf
  Hf38     1.0000 0.27168  0.73341  0.87388  Biso   1.000  Hf
  Hf39     1.0000 0.73862  0.76372  0.62525  Biso   1.000  Hf
  Hf40     1.0000 0.73734  0.97959  0.87439  Biso   1.000  Hf
  Hf41     1.0000 0.07947  0.68138  0.69291  Biso   1.000  Hf
  Hf42     1.0000 0.07273  0.56862  0.94640  Biso   1.000  Hf
  Hf43     1.0000 0.93707  0.92937  0.69496  Biso   1.000  Hf
  Hf44     1.0000 0.93422  0.81424  0.94654  Biso   1.000  Hf
  Hf45     1.0000 0.54797  0.61357  0.75154  Biso   1.000  Hf
  Hf46     1.0000 0.54487  0.63246  0.00030  Biso   1.000  Hf
  Hf47     1.0000 0.46096  0.87945  0.99936  Biso   1.000  Hf
  Hf48     1.0000 0.46759  0.86427  0.74843  Biso   1.000  Hf
  Li1      1.0000 0.18140  0.30650  0.11162  Biso   1.000  Li
