data_image0
_cell_length_a       10.0203
_cell_length_b       10.326
_cell_length_c       4.99705
_cell_angle_alpha    90.1192
_cell_angle_beta     89.9351
_cell_angle_gamma    90.1454

_symmetry_space_group_name_H-M    "P 1"
_symmetry_int_tables_number       1

loop_
  _symmetry_equiv_pos_as_xyz
  'x, y, z'

loop_
  _atom_site_label
  _atom_site_occupancy
  _atom_site_fract_x
  _atom_site_fract_y
  _atom_site_fract_z
  _atom_site_thermal_displace_type
  _atom_site_B_iso_or_equiv
  _atom_site_type_symbol
  Li1      1.0000 0.11924  0.00816  0.22168  Biso   1.000  Li
  Hf1      1.0000 0.13679  0.51534  0.25330  Biso   1.000  Hf
  Hf2      1.0000 0.63206  0.01500  0.24386  Biso   1.000  Hf
  Hf3      1.0000 0.63346  0.51685  0.25209  Biso   1.000  Hf
  Hf4      1.0000 0.13489  0.22816  0.75659  Biso   1.000  Hf
  Hf5      1.0000 0.13659  0.73500  0.75796  Biso   1.000  Hf
  Hf6      1.0000 0.63255  0.23259  0.74692  Biso   1.000  Hf
  Hf7      1.0000 0.63480  0.73498  0.75034  Biso   1.000  Hf
  Hf8      1.0000 0.36365  0.26493  0.25576  Biso   1.000  Hf
  Hf9      1.0000 0.36400  0.76829  0.25453  Biso   1.000  Hf
  Hf10     1.0000 0.86301  0.26438  0.24800  Biso   1.000  Hf
  Hf11     1.0000 0.86755  0.76973  0.24967  Biso   1.000  Hf
  Hf12     1.0000 0.36516  0.48242  0.75357  Biso   1.000  Hf
  Hf13     1.0000 0.35928  0.98177  0.75530  Biso   1.000  Hf
  Hf14     1.0000 0.86477  0.48487  0.75372  Biso   1.000  Hf
  Hf15     1.0000 0.86944  0.98447  0.74188  Biso   1.000  Hf
  Hf16     1.0000 0.02886  0.19227  0.40825  Biso   1.000  Hf
  Hf17     1.0000 0.03507  0.68332  0.39136  Biso   1.000  Hf
  Hf18     1.0000 0.53864  0.18571  0.37998  Biso   1.000  Hf
  Hf19     1.0000 0.53526  0.68294  0.39279  Biso   1.000  Hf
  Hf20     1.0000 0.03076  0.07150  0.88025  Biso   1.000  Hf
  Hf21     1.0000 0.03517  0.56529  0.89332  Biso   1.000  Hf
  Hf22     1.0000 0.53542  0.06509  0.88240  Biso   1.000  Hf
  Hf23     1.0000 0.53552  0.56649  0.89033  Biso   1.000  Hf
  Hf24     1.0000 0.46461  0.43372  0.39196  Biso   1.000  Hf
  Hf25     1.0000 0.46577  0.93411  0.39428  Biso   1.000  Hf
  Hf26     1.0000 0.96497  0.43480  0.39147  Biso   1.000  Hf
  Hf27     1.0000 0.96431  0.93188  0.39204  Biso   1.000  Hf
  Hf28     1.0000 0.46554  0.31671  0.88911  Biso   1.000  Hf
  Hf29     1.0000 0.46963  0.81835  0.89974  Biso   1.000  Hf
  Hf30     1.0000 0.96602  0.31959  0.89602  Biso   1.000  Hf
  Hf31     1.0000 0.96403  0.81508  0.88535  Biso   1.000  Hf
  Hf32     1.0000 0.28127  0.12761  0.51633  Biso   1.000  Hf
  Hf33     1.0000 0.26997  0.61564  0.50114  Biso   1.000  Hf
  Hf34     1.0000 0.76836  0.11548  0.49134  Biso   1.000  Hf
  Hf35     1.0000 0.77141  0.61699  0.49699  Biso   1.000  Hf
  Hf36     1.0000 0.27762  0.13131  0.99982  Biso   1.000  Hf
  Hf37     1.0000 0.27199  0.62926  0.00161  Biso   1.000  Hf
  Hf38     1.0000 0.76881  0.13466  0.99125  Biso   1.000  Hf
  Hf39     1.0000 0.76957  0.63329  0.99781  Biso   1.000  Hf
  Hf40     1.0000 0.23041  0.38048  0.00216  Biso   1.000  Hf
  Hf41     1.0000 0.23114  0.87573  0.00508  Biso   1.000  Hf
  Hf42     1.0000 0.72878  0.38392  0.99678  Biso   1.000  Hf
  Hf43     1.0000 0.73243  0.88380  0.99295  Biso   1.000  Hf
  Hf44     1.0000 0.22739  0.36950  0.50133  Biso   1.000  Hf
  Hf45     1.0000 0.23720  0.86078  0.51440  Biso   1.000  Hf
  Hf46     1.0000 0.73052  0.36747  0.49790  Biso   1.000  Hf
  Hf47     1.0000 0.72666  0.86620  0.49135  Biso   1.000  Hf
