data_image0
_cell_length_a       10.1808
_cell_length_b       10.1174
_cell_length_c       5.09776
_cell_angle_alpha    90.1609
_cell_angle_beta     97.4502
_cell_angle_gamma    89.8763

_symmetry_space_group_name_H-M    "P 1"
_symmetry_int_tables_number       1

loop_
  _symmetry_equiv_pos_as_xyz
  'x, y, z'

loop_
  _atom_site_label
  _atom_site_occupancy
  _atom_site_fract_x
  _atom_site_fract_y
  _atom_site_fract_z
  _atom_site_thermal_displace_type
  _atom_site_B_iso_or_equiv
  _atom_site_type_symbol
  Hf1      1.0000 0.12472  0.99921  0.25252  Biso   1.000  Hf
  Hf2      1.0000 0.12540  0.24113  0.75653  Biso   1.000  Hf
  Hf3      1.0000 0.38217  0.24287  0.24258  Biso   1.000  Hf
  Hf4      1.0000 0.37559  0.00706  0.74850  Biso   1.000  Hf
  Hf5      1.0000 0.00432  0.15597  0.02832  Biso   1.000  Hf
  Hf6      1.0000 0.00338  0.09615  0.50304  Biso   1.000  Hf
  Hf7      1.0000 0.95248  0.33403  0.60104  Biso   1.000  Hf
  Hf8      1.0000 0.96126  0.40746  0.10557  Biso   1.000  Hf
  Hf9      1.0000 0.24074  0.15650  0.48498  Biso   1.000  Hf
  Hf10     1.0000 0.25336  0.10097  0.98915  Biso   1.000  Hf
  Hf11     1.0000 0.21224  0.34786  0.07780  Biso   1.000  Hf
  Hf12     1.0000 0.19912  0.40763  0.57352  Biso   1.000  Hf
  Hf13     1.0000 0.12646  0.52015  0.24626  Biso   1.000  Hf
  Hf14     1.0000 0.12458  0.74403  0.75135  Biso   1.000  Hf
  Hf15     1.0000 0.37657  0.74365  0.24679  Biso   1.000  Hf
  Hf16     1.0000 0.37363  0.50521  0.74469  Biso   1.000  Hf
  Hf17     1.0000 0.00136  0.65229  0.99582  Biso   1.000  Hf
  Hf18     1.0000 0.99744  0.59841  0.50894  Biso   1.000  Hf
  Hf19     1.0000 0.04568  0.83594  0.40692  Biso   1.000  Hf
  Hf20     1.0000 0.04466  0.91149  0.90731  Biso   1.000  Hf
  Hf21     1.0000 0.25302  0.65286  0.49288  Biso   1.000  Hf
  Hf22     1.0000 0.24832  0.60206  0.99744  Biso   1.000  Hf
  Hf23     1.0000 0.29487  0.84176  0.90859  Biso   1.000  Hf
  Hf24     1.0000 0.29755  0.91142  0.40858  Biso   1.000  Hf
  Hf25     1.0000 0.62474  0.00370  0.24845  Biso   1.000  Hf
  Hf26     1.0000 0.62443  0.24289  0.74659  Biso   1.000  Hf
  Hf27     1.0000 0.86466  0.24287  0.25713  Biso   1.000  Hf
  Hf28     1.0000 0.87407  0.00569  0.75214  Biso   1.000  Hf
  Hf29     1.0000 0.50059  0.14985  0.00070  Biso   1.000  Hf
  Hf30     1.0000 0.50102  0.09808  0.48913  Biso   1.000  Hf
  Hf31     1.0000 0.45339  0.33814  0.58774  Biso   1.000  Hf
  Hf32     1.0000 0.45668  0.41033  0.08528  Biso   1.000  Hf
  Hf33     1.0000 0.74491  0.14827  0.50634  Biso   1.000  Hf
  Hf34     1.0000 0.75439  0.09908  0.99758  Biso   1.000  Hf
  Hf35     1.0000 0.70352  0.34079  0.08542  Biso   1.000  Hf
  Hf36     1.0000 0.70560  0.40852  0.58687  Biso   1.000  Hf
  Hf37     1.0000 0.62512  0.50830  0.24934  Biso   1.000  Hf
  Hf38     1.0000 0.62483  0.74134  0.75052  Biso   1.000  Hf
  Hf39     1.0000 0.87224  0.74152  0.25376  Biso   1.000  Hf
  Hf40     1.0000 0.87630  0.50418  0.75428  Biso   1.000  Hf
  Hf41     1.0000 0.50219  0.65016  0.99197  Biso   1.000  Hf
  Hf42     1.0000 0.49637  0.59734  0.50309  Biso   1.000  Hf
  Hf43     1.0000 0.54753  0.83715  0.40648  Biso   1.000  Hf
  Hf44     1.0000 0.54412  0.90994  0.90544  Biso   1.000  Hf
  Hf45     1.0000 0.75270  0.64914  0.49925  Biso   1.000  Hf
  Hf46     1.0000 0.74871  0.59746  0.00709  Biso   1.000  Hf
  Hf47     1.0000 0.79417  0.83930  0.91338  Biso   1.000  Hf
  Hf48     1.0000 0.79616  0.90973  0.41403  Biso   1.000  Hf
  Li1      1.0000 0.11425  0.26456  0.27088  Biso   1.000  Li
