data_image0
_cell_length_a       4.98901
_cell_length_b       10.3047
_cell_length_c       10.0557
_cell_angle_alpha    90.1649
_cell_angle_beta     89.9344
_cell_angle_gamma    90.0527

_symmetry_space_group_name_H-M    "P 1"
_symmetry_int_tables_number       1

loop_
  _symmetry_equiv_pos_as_xyz
  'x, y, z'

loop_
  _atom_site_label
  _atom_site_occupancy
  _atom_site_fract_x
  _atom_site_fract_y
  _atom_site_fract_z
  _atom_site_thermal_displace_type
  _atom_site_B_iso_or_equiv
  _atom_site_type_symbol
  Li1      1.0000 0.24491  0.00895  0.10789  Biso   1.000  Li
  Hf1      1.0000 0.26459  0.01638  0.62568  Biso   1.000  Hf
  Hf2      1.0000 0.27203  0.51621  0.12597  Biso   1.000  Hf
  Hf3      1.0000 0.26846  0.51690  0.62632  Biso   1.000  Hf
  Hf4      1.0000 0.26855  0.22956  0.37272  Biso   1.000  Hf
  Hf5      1.0000 0.27175  0.23042  0.87681  Biso   1.000  Hf
  Hf6      1.0000 0.27048  0.73574  0.37624  Biso   1.000  Hf
  Hf7      1.0000 0.27431  0.73600  0.87821  Biso   1.000  Hf
  Hf8      1.0000 0.72199  0.26227  0.12567  Biso   1.000  Hf
  Hf9      1.0000 0.72922  0.26639  0.62414  Biso   1.000  Hf
  Hf10     1.0000 0.72683  0.77167  0.12547  Biso   1.000  Hf
  Hf11     1.0000 0.73270  0.76768  0.62609  Biso   1.000  Hf
  Hf12     1.0000 0.72948  0.48367  0.37673  Biso   1.000  Hf
  Hf13     1.0000 0.73130  0.48352  0.87586  Biso   1.000  Hf
  Hf14     1.0000 0.72729  0.98318  0.36855  Biso   1.000  Hf
  Hf15     1.0000 0.72138  0.98337  0.87848  Biso   1.000  Hf
  Hf16     1.0000 0.06318  0.18908  0.19970  Biso   1.000  Hf
  Hf17     1.0000 0.07355  0.18737  0.69151  Biso   1.000  Hf
  Hf18     1.0000 0.06568  0.68231  0.19710  Biso   1.000  Hf
  Hf19     1.0000 0.07224  0.68451  0.69539  Biso   1.000  Hf
  Hf20     1.0000 0.06502  0.06679  0.44773  Biso   1.000  Hf
  Hf21     1.0000 0.07053  0.06749  0.92619  Biso   1.000  Hf
  Hf22     1.0000 0.06983  0.56572  0.44626  Biso   1.000  Hf
  Hf23     1.0000 0.07117  0.56689  0.94598  Biso   1.000  Hf
  Hf24     1.0000 0.93111  0.43341  0.19659  Biso   1.000  Hf
  Hf25     1.0000 0.92802  0.43493  0.69489  Biso   1.000  Hf
  Hf26     1.0000 0.93864  0.93107  0.19877  Biso   1.000  Hf
  Hf27     1.0000 0.92536  0.93435  0.69449  Biso   1.000  Hf
  Hf28     1.0000 0.93066  0.31742  0.44589  Biso   1.000  Hf
  Hf29     1.0000 0.93475  0.31833  0.94562  Biso   1.000  Hf
  Hf30     1.0000 0.93332  0.81709  0.44874  Biso   1.000  Hf
  Hf31     1.0000 0.93054  0.81671  0.94405  Biso   1.000  Hf
  Hf32     1.0000 0.55626  0.12481  0.25240  Biso   1.000  Hf
  Hf33     1.0000 0.54283  0.11796  0.74636  Biso   1.000  Hf
  Hf34     1.0000 0.54033  0.61477  0.24891  Biso   1.000  Hf
  Hf35     1.0000 0.54216  0.61829  0.74996  Biso   1.000  Hf
  Hf36     1.0000 0.53819  0.13223  0.49911  Biso   1.000  Hf
  Hf37     1.0000 0.55526  0.13546  0.99282  Biso   1.000  Hf
  Hf38     1.0000 0.54068  0.63314  0.49946  Biso   1.000  Hf
  Hf39     1.0000 0.54372  0.63018  0.99997  Biso   1.000  Hf
  Hf40     1.0000 0.45925  0.38288  0.49922  Biso   1.000  Hf
  Hf41     1.0000 0.46002  0.38268  0.99955  Biso   1.000  Hf
  Hf42     1.0000 0.45946  0.88346  0.50057  Biso   1.000  Hf
  Hf43     1.0000 0.46064  0.87763  0.99876  Biso   1.000  Hf
  Hf44     1.0000 0.45513  0.36902  0.24912  Biso   1.000  Hf
  Hf45     1.0000 0.45921  0.36816  0.74943  Biso   1.000  Hf
  Hf46     1.0000 0.47372  0.85908  0.25581  Biso   1.000  Hf
  Hf47     1.0000 0.45579  0.86817  0.74842  Biso   1.000  Hf
