data_image0
_cell_length_a       9.96417
_cell_length_b       10.4198
_cell_length_c       5.01569
_cell_angle_alpha    89.6959
_cell_angle_beta     90.2447
_cell_angle_gamma    89.9695

_symmetry_space_group_name_H-M    "P 1"
_symmetry_int_tables_number       1

loop_
  _symmetry_equiv_pos_as_xyz
  'x, y, z'

loop_
  _atom_site_label
  _atom_site_occupancy
  _atom_site_fract_x
  _atom_site_fract_y
  _atom_site_fract_z
  _atom_site_thermal_displace_type
  _atom_site_B_iso_or_equiv
  _atom_site_type_symbol
  Hf1      1.0000 0.13339  0.01587  0.24550  Biso   1.000  Hf
  Hf2      1.0000 0.13750  0.22708  0.74890  Biso   1.000  Hf
  Hf3      1.0000 0.36898  0.26519  0.24835  Biso   1.000  Hf
  Hf4      1.0000 0.36542  0.48070  0.75017  Biso   1.000  Hf
  Hf5      1.0000 0.02541  0.17829  0.40072  Biso   1.000  Hf
  Hf6      1.0000 0.03864  0.06269  0.88706  Biso   1.000  Hf
  Hf7      1.0000 0.46274  0.43363  0.38989  Biso   1.000  Hf
  Hf8      1.0000 0.46546  0.31515  0.88995  Biso   1.000  Hf
  Hf9      1.0000 0.27016  0.11663  0.49249  Biso   1.000  Hf
  Hf10     1.0000 0.27968  0.12827  0.99049  Biso   1.000  Hf
  Hf11     1.0000 0.22669  0.38168  0.00169  Biso   1.000  Hf
  Hf12     1.0000 0.22494  0.36718  0.49093  Biso   1.000  Hf
  Hf13     1.0000 0.13819  0.53199  0.25301  Biso   1.000  Hf
  Hf14     1.0000 0.13572  0.73740  0.75356  Biso   1.000  Hf
  Hf15     1.0000 0.36937  0.76785  0.25127  Biso   1.000  Hf
  Hf16     1.0000 0.36669  0.98204  0.74852  Biso   1.000  Hf
  Hf17     1.0000 0.03546  0.68606  0.39573  Biso   1.000  Hf
  Hf18     1.0000 0.03745  0.56916  0.89159  Biso   1.000  Hf
  Hf19     1.0000 0.46513  0.93357  0.38624  Biso   1.000  Hf
  Hf20     1.0000 0.46643  0.81537  0.88826  Biso   1.000  Hf
  Hf21     1.0000 0.27486  0.62203  0.50475  Biso   1.000  Hf
  Hf22     1.0000 0.27320  0.63358  0.99993  Biso   1.000  Hf
  Hf23     1.0000 0.23120  0.88109  0.99954  Biso   1.000  Hf
  Hf24     1.0000 0.23080  0.86789  0.49776  Biso   1.000  Hf
  Hf25     1.0000 0.63410  0.01369  0.24694  Biso   1.000  Hf
  Hf26     1.0000 0.63232  0.23012  0.75046  Biso   1.000  Hf
  Hf27     1.0000 0.85217  0.26281  0.25568  Biso   1.000  Hf
  Hf28     1.0000 0.87119  0.47926  0.75376  Biso   1.000  Hf
  Hf29     1.0000 0.53711  0.18232  0.38722  Biso   1.000  Hf
  Hf30     1.0000 0.53797  0.06372  0.88620  Biso   1.000  Hf
  Hf31     1.0000 0.96896  0.42957  0.39218  Biso   1.000  Hf
  Hf32     1.0000 0.97207  0.31347  0.91611  Biso   1.000  Hf
  Hf33     1.0000 0.76726  0.11397  0.50031  Biso   1.000  Hf
  Hf34     1.0000 0.77259  0.12953  0.99645  Biso   1.000  Hf
  Hf35     1.0000 0.72953  0.38006  0.00114  Biso   1.000  Hf
  Hf36     1.0000 0.72801  0.36785  0.50433  Biso   1.000  Hf
  Hf37     1.0000 0.63472  0.51610  0.25223  Biso   1.000  Hf
  Hf38     1.0000 0.63546  0.73044  0.75220  Biso   1.000  Hf
  Hf39     1.0000 0.86390  0.76549  0.25194  Biso   1.000  Hf
  Hf40     1.0000 0.86763  0.98120  0.74885  Biso   1.000  Hf
  Hf41     1.0000 0.53886  0.68300  0.38765  Biso   1.000  Hf
  Hf42     1.0000 0.53500  0.56426  0.88913  Biso   1.000  Hf
  Hf43     1.0000 0.96456  0.93183  0.38931  Biso   1.000  Hf
  Hf44     1.0000 0.96534  0.81552  0.89396  Biso   1.000  Hf
  Hf45     1.0000 0.77315  0.61495  0.50289  Biso   1.000  Hf
  Hf46     1.0000 0.77172  0.62918  0.00098  Biso   1.000  Hf
  Hf47     1.0000 0.73061  0.87956  0.99907  Biso   1.000  Hf
  Hf48     1.0000 0.72986  0.86525  0.49995  Biso   1.000  Hf
  Li1      1.0000 0.09769  0.30760  0.22821  Biso   1.000  Li
