data_image0
_cell_length_a       4.98123
_cell_length_b       10.1151
_cell_length_c       10.0238
_cell_angle_alpha    89.9976
_cell_angle_beta     89.9988
_cell_angle_gamma    90.0023

_symmetry_space_group_name_H-M    "P 1"
_symmetry_int_tables_number       1

loop_
  _symmetry_equiv_pos_as_xyz
  'x, y, z'

loop_
  _atom_site_label
  _atom_site_occupancy
  _atom_site_fract_x
  _atom_site_fract_y
  _atom_site_fract_z
  _atom_site_thermal_displace_type
  _atom_site_B_iso_or_equiv
  _atom_site_type_symbol
  Li1      1.0000 0.25233  0.99994  0.12497  Biso   1.000  Li
  Hf1      1.0000 0.25236  0.99995  0.62496  Biso   1.000  Hf
  Hf2      1.0000 0.25236  0.49995  0.12496  Biso   1.000  Hf
  Hf3      1.0000 0.25236  0.49995  0.62496  Biso   1.000  Hf
  Hf4      1.0000 0.25231  0.24830  0.37278  Biso   1.000  Hf
  Hf5      1.0000 0.25243  0.24829  0.87713  Biso   1.000  Hf
  Hf6      1.0000 0.25244  0.75161  0.37278  Biso   1.000  Hf
  Hf7      1.0000 0.25232  0.75161  0.87712  Biso   1.000  Hf
  Hf8      1.0000 0.75237  0.24582  0.12495  Biso   1.000  Hf
  Hf9      1.0000 0.75237  0.24901  0.62495  Biso   1.000  Hf
  Hf10     1.0000 0.75239  0.75408  0.12495  Biso   1.000  Hf
  Hf11     1.0000 0.75238  0.75090  0.62495  Biso   1.000  Hf
  Hf12     1.0000 0.75237  0.99995  0.36839  Biso   1.000  Hf
  Hf13     1.0000 0.75236  0.99995  0.88152  Biso   1.000  Hf
  Hf14     1.0000 0.75236  0.49996  0.37493  Biso   1.000  Hf
  Hf15     1.0000 0.75236  0.49996  0.87499  Biso   1.000  Hf
  Hf16     1.0000 0.99760  0.13818  0.99590  Biso   1.000  Hf
  Hf17     1.0000 0.01177  0.14199  0.50327  Biso   1.000  Hf
  Hf18     1.0000 0.01225  0.63474  0.00230  Biso   1.000  Hf
  Hf19     1.0000 0.00726  0.64176  0.50203  Biso   1.000  Hf
  Hf20     1.0000 0.99353  0.12098  0.25398  Biso   1.000  Hf
  Hf21     1.0000 0.99467  0.10771  0.74961  Biso   1.000  Hf
  Hf22     1.0000 0.99434  0.61289  0.25079  Biso   1.000  Hf
  Hf23     1.0000 0.99826  0.60799  0.75101  Biso   1.000  Hf
  Hf24     1.0000 0.01223  0.36516  0.24761  Biso   1.000  Hf
  Hf25     1.0000 0.00727  0.35814  0.74787  Biso   1.000  Hf
  Hf26     1.0000 0.99763  0.86173  0.25400  Biso   1.000  Hf
  Hf27     1.0000 0.01176  0.85791  0.74664  Biso   1.000  Hf
  Hf28     1.0000 0.99433  0.38701  0.99911  Biso   1.000  Hf
  Hf29     1.0000 0.99825  0.39191  0.49890  Biso   1.000  Hf
  Hf30     1.0000 0.99353  0.87893  0.99592  Biso   1.000  Hf
  Hf31     1.0000 0.99468  0.89219  0.50030  Biso   1.000  Hf
  Hf32     1.0000 0.50713  0.13818  0.25401  Biso   1.000  Hf
  Hf33     1.0000 0.49296  0.14199  0.74665  Biso   1.000  Hf
  Hf34     1.0000 0.49250  0.63474  0.24761  Biso   1.000  Hf
  Hf35     1.0000 0.49749  0.64176  0.74788  Biso   1.000  Hf
  Hf36     1.0000 0.51121  0.12098  0.99593  Biso   1.000  Hf
  Hf37     1.0000 0.51007  0.10772  0.50030  Biso   1.000  Hf
  Hf38     1.0000 0.51043  0.61289  0.99911  Biso   1.000  Hf
  Hf39     1.0000 0.50650  0.60800  0.49890  Biso   1.000  Hf
  Hf40     1.0000 0.49250  0.36516  0.00230  Biso   1.000  Hf
  Hf41     1.0000 0.49748  0.35814  0.50203  Biso   1.000  Hf
  Hf42     1.0000 0.50712  0.86173  0.99591  Biso   1.000  Hf
  Hf43     1.0000 0.49297  0.85791  0.50327  Biso   1.000  Hf
  Hf44     1.0000 0.51041  0.38702  0.25079  Biso   1.000  Hf
  Hf45     1.0000 0.50652  0.39191  0.75100  Biso   1.000  Hf
  Hf46     1.0000 0.51123  0.87893  0.25398  Biso   1.000  Hf
  Hf47     1.0000 0.51006  0.89219  0.74961  Biso   1.000  Hf
