data_image0
_cell_length_a       9.98225
_cell_length_b       10.331
_cell_length_c       10.0213
_cell_angle_alpha    90.0866
_cell_angle_beta     89.9763
_cell_angle_gamma    90.0654

_symmetry_space_group_name_H-M    "P 1"
_symmetry_int_tables_number       1

loop_
  _symmetry_equiv_pos_as_xyz
  'x, y, z'

loop_
  _atom_site_label
  _atom_site_occupancy
  _atom_site_fract_x
  _atom_site_fract_y
  _atom_site_fract_z
  _atom_site_thermal_displace_type
  _atom_site_B_iso_or_equiv
  _atom_site_type_symbol
  Li1      1.0000 0.12100  0.00615  0.10709  Biso   1.000  Li
  Hf1      1.0000 0.13418  0.01759  0.62936  Biso   1.000  Hf
  Hf2      1.0000 0.13599  0.51576  0.12629  Biso   1.000  Hf
  Hf3      1.0000 0.13464  0.51698  0.62689  Biso   1.000  Hf
  Hf4      1.0000 0.63319  0.01579  0.12396  Biso   1.000  Hf
  Hf5      1.0000 0.63222  0.01545  0.62311  Biso   1.000  Hf
  Hf6      1.0000 0.63360  0.51671  0.12648  Biso   1.000  Hf
  Hf7      1.0000 0.63383  0.51637  0.62610  Biso   1.000  Hf
  Hf8      1.0000 0.13453  0.22964  0.37328  Biso   1.000  Hf
  Hf9      1.0000 0.13556  0.23122  0.87919  Biso   1.000  Hf
  Hf10     1.0000 0.13649  0.73509  0.37691  Biso   1.000  Hf
  Hf11     1.0000 0.13682  0.73587  0.87954  Biso   1.000  Hf
  Hf12     1.0000 0.63299  0.23276  0.37480  Biso   1.000  Hf
  Hf13     1.0000 0.63393  0.23248  0.87454  Biso   1.000  Hf
  Hf14     1.0000 0.63354  0.73473  0.37566  Biso   1.000  Hf
  Hf15     1.0000 0.63507  0.73430  0.87580  Biso   1.000  Hf
  Hf16     1.0000 0.36270  0.26384  0.12768  Biso   1.000  Hf
  Hf17     1.0000 0.36505  0.26680  0.62636  Biso   1.000  Hf
  Hf18     1.0000 0.36235  0.76815  0.12643  Biso   1.000  Hf
  Hf19     1.0000 0.36620  0.76854  0.62759  Biso   1.000  Hf
  Hf20     1.0000 0.86439  0.26447  0.12570  Biso   1.000  Hf
  Hf21     1.0000 0.86553  0.26620  0.62447  Biso   1.000  Hf
  Hf22     1.0000 0.86687  0.76993  0.12570  Biso   1.000  Hf
  Hf23     1.0000 0.86631  0.76597  0.62480  Biso   1.000  Hf
  Hf24     1.0000 0.36483  0.48325  0.37654  Biso   1.000  Hf
  Hf25     1.0000 0.36526  0.48324  0.87652  Biso   1.000  Hf
  Hf26     1.0000 0.36036  0.98323  0.37209  Biso   1.000  Hf
  Hf27     1.0000 0.36045  0.98241  0.88242  Biso   1.000  Hf
  Hf28     1.0000 0.86541  0.48426  0.37674  Biso   1.000  Hf
  Hf29     1.0000 0.86561  0.48395  0.87648  Biso   1.000  Hf
  Hf30     1.0000 0.86974  0.98380  0.37200  Biso   1.000  Hf
  Hf31     1.0000 0.86605  0.98370  0.87339  Biso   1.000  Hf
  Hf32     1.0000 0.02752  0.18651  0.20396  Biso   1.000  Hf
  Hf33     1.0000 0.03735  0.18784  0.69259  Biso   1.000  Hf
  Hf34     1.0000 0.03477  0.68353  0.19582  Biso   1.000  Hf
  Hf35     1.0000 0.03671  0.68545  0.69434  Biso   1.000  Hf
  Hf36     1.0000 0.53856  0.18595  0.19113  Biso   1.000  Hf
  Hf37     1.0000 0.53657  0.18495  0.69261  Biso   1.000  Hf
  Hf38     1.0000 0.53463  0.68306  0.19634  Biso   1.000  Hf
  Hf39     1.0000 0.53587  0.68372  0.69562  Biso   1.000  Hf
  Hf40     1.0000 0.03441  0.06699  0.45030  Biso   1.000  Hf
  Hf41     1.0000 0.03611  0.06702  0.92519  Biso   1.000  Hf
  Hf42     1.0000 0.03563  0.56517  0.44624  Biso   1.000  Hf
  Hf43     1.0000 0.03561  0.56678  0.94577  Biso   1.000  Hf
  Hf44     1.0000 0.53438  0.06558  0.44298  Biso   1.000  Hf
  Hf45     1.0000 0.53659  0.06569  0.94321  Biso   1.000  Hf
  Hf46     1.0000 0.53512  0.56640  0.44547  Biso   1.000  Hf
  Hf47     1.0000 0.53599  0.56603  0.94502  Biso   1.000  Hf
  Hf48     1.0000 0.46443  0.43323  0.19626  Biso   1.000  Hf
  Hf49     1.0000 0.46387  0.43457  0.69482  Biso   1.000  Hf
  Hf50     1.0000 0.46612  0.93420  0.19520  Biso   1.000  Hf
  Hf51     1.0000 0.46413  0.93447  0.69769  Biso   1.000  Hf
  Hf52     1.0000 0.96466  0.43442  0.19542  Biso   1.000  Hf
  Hf53     1.0000 0.96395  0.43504  0.69547  Biso   1.000  Hf
  Hf54     1.0000 0.96562  0.93193  0.19743  Biso   1.000  Hf
  Hf55     1.0000 0.96253  0.93423  0.69128  Biso   1.000  Hf
  Hf56     1.0000 0.46440  0.31613  0.44547  Biso   1.000  Hf
  Hf57     1.0000 0.46506  0.31658  0.94332  Biso   1.000  Hf
  Hf58     1.0000 0.46669  0.81788  0.44951  Biso   1.000  Hf
  Hf59     1.0000 0.46788  0.81747  0.94687  Biso   1.000  Hf
  Hf60     1.0000 0.96486  0.31793  0.44599  Biso   1.000  Hf
  Hf61     1.0000 0.96542  0.31739  0.94706  Biso   1.000  Hf
  Hf62     1.0000 0.96443  0.81500  0.44396  Biso   1.000  Hf
  Hf63     1.0000 0.96242  0.81489  0.94195  Biso   1.000  Hf
  Hf64     1.0000 0.28061  0.12768  0.25637  Biso   1.000  Hf
  Hf65     1.0000 0.27282  0.11930  0.75046  Biso   1.000  Hf
  Hf66     1.0000 0.26943  0.61455  0.25004  Biso   1.000  Hf
  Hf67     1.0000 0.27087  0.61919  0.75101  Biso   1.000  Hf
  Hf68     1.0000 0.76819  0.11556  0.24796  Biso   1.000  Hf
  Hf69     1.0000 0.76993  0.11692  0.74681  Biso   1.000  Hf
  Hf70     1.0000 0.77100  0.61733  0.24917  Biso   1.000  Hf
  Hf71     1.0000 0.77100  0.61705  0.74922  Biso   1.000  Hf
  Hf72     1.0000 0.27024  0.13059  0.50230  Biso   1.000  Hf
  Hf73     1.0000 0.27683  0.13488  0.99680  Biso   1.000  Hf
  Hf74     1.0000 0.27142  0.63286  0.50051  Biso   1.000  Hf
  Hf75     1.0000 0.27184  0.62918  0.00086  Biso   1.000  Hf
  Hf76     1.0000 0.76952  0.13431  0.49736  Biso   1.000  Hf
  Hf77     1.0000 0.77197  0.13240  0.99718  Biso   1.000  Hf
  Hf78     1.0000 0.76942  0.63279  0.49922  Biso   1.000  Hf
  Hf79     1.0000 0.77043  0.63260  0.99952  Biso   1.000  Hf
  Hf80     1.0000 0.23000  0.38214  0.50037  Biso   1.000  Hf
  Hf81     1.0000 0.23009  0.38187  0.00098  Biso   1.000  Hf
  Hf82     1.0000 0.22795  0.88280  0.50339  Biso   1.000  Hf
  Hf83     1.0000 0.23106  0.87598  0.00034  Biso   1.000  Hf
  Hf84     1.0000 0.72904  0.38329  0.49924  Biso   1.000  Hf
  Hf85     1.0000 0.72863  0.38288  0.99891  Biso   1.000  Hf
  Hf86     1.0000 0.73166  0.88353  0.49754  Biso   1.000  Hf
  Hf87     1.0000 0.73005  0.88251  0.99880  Biso   1.000  Hf
  Hf88     1.0000 0.22658  0.36945  0.24992  Biso   1.000  Hf
  Hf89     1.0000 0.22926  0.36858  0.75072  Biso   1.000  Hf
  Hf90     1.0000 0.24001  0.85822  0.25840  Biso   1.000  Hf
  Hf91     1.0000 0.22873  0.86944  0.75105  Biso   1.000  Hf
  Hf92     1.0000 0.73014  0.36731  0.24975  Biso   1.000  Hf
  Hf93     1.0000 0.72985  0.36754  0.74921  Biso   1.000  Hf
  Hf94     1.0000 0.72736  0.86663  0.24812  Biso   1.000  Hf
  Hf95     1.0000 0.72889  0.86660  0.74747  Biso   1.000  Hf
