data_image0
_cell_length_a       10.0337
_cell_length_b       10.1978
_cell_length_c       10.0324
_cell_angle_alpha    89.948
_cell_angle_beta     89.9994
_cell_angle_gamma    90.0001

_symmetry_space_group_name_H-M    "P 1"
_symmetry_int_tables_number       1

loop_
  _symmetry_equiv_pos_as_xyz
  'x, y, z'

loop_
  _atom_site_label
  _atom_site_occupancy
  _atom_site_fract_x
  _atom_site_fract_y
  _atom_site_fract_z
  _atom_site_thermal_displace_type
  _atom_site_B_iso_or_equiv
  _atom_site_type_symbol
  Hf1      1.0000 0.12489  0.99359  0.12482  Biso   1.000  Hf
  Hf2      1.0000 0.12350  0.24931  0.38511  Biso   1.000  Hf
  Hf3      1.0000 0.38585  0.25005  0.12492  Biso   1.000  Hf
  Hf4      1.0000 0.37529  0.00053  0.37535  Biso   1.000  Hf
  Hf5      1.0000 0.01492  0.15449  0.01466  Biso   1.000  Hf
  Hf6      1.0000 0.99637  0.09947  0.25592  Biso   1.000  Hf
  Hf7      1.0000 0.01490  0.34569  0.23523  Biso   1.000  Hf
  Hf8      1.0000 0.99645  0.40067  0.99395  Biso   1.000  Hf
  Hf9      1.0000 0.23780  0.15524  0.23822  Biso   1.000  Hf
  Hf10     1.0000 0.25609  0.09859  0.99744  Biso   1.000  Hf
  Hf11     1.0000 0.23790  0.34490  0.01152  Biso   1.000  Hf
  Hf12     1.0000 0.25612  0.40152  0.25231  Biso   1.000  Hf
  Hf13     1.0000 0.12477  0.99859  0.62529  Biso   1.000  Hf
  Hf14     1.0000 0.12355  0.25074  0.86471  Biso   1.000  Hf
  Hf15     1.0000 0.37772  0.25006  0.62489  Biso   1.000  Hf
  Hf16     1.0000 0.37518  0.99964  0.87437  Biso   1.000  Hf
  Hf17     1.0000 0.00417  0.14435  0.51141  Biso   1.000  Hf
  Hf18     1.0000 0.00029  0.10460  0.75869  Biso   1.000  Hf
  Hf19     1.0000 0.00417  0.35572  0.73848  Biso   1.000  Hf
  Hf20     1.0000 0.00024  0.39547  0.49121  Biso   1.000  Hf
  Hf21     1.0000 0.24629  0.14530  0.74114  Biso   1.000  Hf
  Hf22     1.0000 0.24979  0.10428  0.49312  Biso   1.000  Hf
  Hf23     1.0000 0.24626  0.35479  0.50864  Biso   1.000  Hf
  Hf24     1.0000 0.24981  0.39580  0.75666  Biso   1.000  Hf
  Hf25     1.0000 0.12488  0.50658  0.12502  Biso   1.000  Hf
  Hf26     1.0000 0.12464  0.75023  0.37653  Biso   1.000  Hf
  Hf27     1.0000 0.37641  0.75006  0.12493  Biso   1.000  Hf
  Hf28     1.0000 0.37514  0.50045  0.37545  Biso   1.000  Hf
  Hf29     1.0000 0.00520  0.64999  0.00543  Biso   1.000  Hf
  Hf30     1.0000 0.99599  0.60186  0.25342  Biso   1.000  Hf
  Hf31     1.0000 0.00521  0.85014  0.24441  Biso   1.000  Hf
  Hf32     1.0000 0.99598  0.89829  0.99643  Biso   1.000  Hf
  Hf33     1.0000 0.24383  0.65052  0.24419  Biso   1.000  Hf
  Hf34     1.0000 0.25346  0.60169  0.99596  Biso   1.000  Hf
  Hf35     1.0000 0.24381  0.84959  0.00570  Biso   1.000  Hf
  Hf36     1.0000 0.25345  0.89845  0.25390  Biso   1.000  Hf
  Hf37     1.0000 0.12476  0.50150  0.62456  Biso   1.000  Hf
  Hf38     1.0000 0.12465  0.74990  0.87333  Biso   1.000  Hf
  Hf39     1.0000 0.37458  0.75003  0.62494  Biso   1.000  Hf
  Hf40     1.0000 0.37525  0.49952  0.87453  Biso   1.000  Hf
  Hf41     1.0000 0.00408  0.64555  0.50542  Biso   1.000  Hf
  Hf42     1.0000 0.99732  0.60491  0.75310  Biso   1.000  Hf
  Hf43     1.0000 0.00407  0.85453  0.74442  Biso   1.000  Hf
  Hf44     1.0000 0.99734  0.89518  0.49674  Biso   1.000  Hf
  Hf45     1.0000 0.24496  0.64581  0.74409  Biso   1.000  Hf
  Hf46     1.0000 0.25223  0.60484  0.49622  Biso   1.000  Hf
  Hf47     1.0000 0.24499  0.85428  0.50578  Biso   1.000  Hf
  Hf48     1.0000 0.25222  0.89524  0.75366  Biso   1.000  Hf
  Hf49     1.0000 0.62479  0.99869  0.12448  Biso   1.000  Hf
  Hf50     1.0000 0.62670  0.25005  0.37784  Biso   1.000  Hf
  Hf51     1.0000 0.86580  0.25003  0.12496  Biso   1.000  Hf
  Hf52     1.0000 0.87415  0.99891  0.37528  Biso   1.000  Hf
  Hf53     1.0000 0.51043  0.14535  0.00272  Biso   1.000  Hf
  Hf54     1.0000 0.49196  0.10415  0.24866  Biso   1.000  Hf
  Hf55     1.0000 0.51044  0.35473  0.24710  Biso   1.000  Hf
  Hf56     1.0000 0.49203  0.39594  0.00115  Biso   1.000  Hf
  Hf57     1.0000 0.73974  0.14438  0.24515  Biso   1.000  Hf
  Hf58     1.0000 0.75830  0.10472  0.99980  Biso   1.000  Hf
  Hf59     1.0000 0.73980  0.35569  0.00472  Biso   1.000  Hf
  Hf60     1.0000 0.75828  0.39536  0.25009  Biso   1.000  Hf
  Hf61     1.0000 0.62432  0.99819  0.62456  Biso   1.000  Hf
  Hf62     1.0000 0.62670  0.25007  0.87203  Biso   1.000  Hf
  Hf63     1.0000 0.87183  0.25006  0.62492  Biso   1.000  Hf
  Hf64     1.0000 0.87366  0.99905  0.87370  Biso   1.000  Hf
  Hf65     1.0000 0.50316  0.14587  0.50246  Biso   1.000  Hf
  Hf66     1.0000 0.49751  0.10382  0.75080  Biso   1.000  Hf
  Hf67     1.0000 0.50317  0.35420  0.74737  Biso   1.000  Hf
  Hf68     1.0000 0.49748  0.39627  0.49903  Biso   1.000  Hf
  Hf69     1.0000 0.74556  0.14429  0.74524  Biso   1.000  Hf
  Hf70     1.0000 0.75150  0.10439  0.49760  Biso   1.000  Hf
  Hf71     1.0000 0.74551  0.35581  0.50466  Biso   1.000  Hf
  Hf72     1.0000 0.75150  0.39571  0.75228  Biso   1.000  Hf
  Hf73     1.0000 0.62479  0.50140  0.12538  Biso   1.000  Hf
  Hf74     1.0000 0.62471  0.75018  0.37484  Biso   1.000  Hf
  Hf75     1.0000 0.87318  0.75007  0.12493  Biso   1.000  Hf
  Hf76     1.0000 0.87368  0.50104  0.37613  Biso   1.000  Hf
  Hf77     1.0000 0.50538  0.64574  0.00459  Biso   1.000  Hf
  Hf78     1.0000 0.49615  0.60483  0.25250  Biso   1.000  Hf
  Hf79     1.0000 0.50538  0.85435  0.24530  Biso   1.000  Hf
  Hf80     1.0000 0.49612  0.89526  0.99738  Biso   1.000  Hf
  Hf81     1.0000 0.74404  0.64554  0.24573  Biso   1.000  Hf
  Hf82     1.0000 0.75320  0.60500  0.99792  Biso   1.000  Hf
  Hf83     1.0000 0.74402  0.85455  0.00412  Biso   1.000  Hf
  Hf84     1.0000 0.75321  0.89509  0.25193  Biso   1.000  Hf
  Hf85     1.0000 0.62431  0.50190  0.62531  Biso   1.000  Hf
  Hf86     1.0000 0.62469  0.74988  0.87504  Biso   1.000  Hf
  Hf87     1.0000 0.87460  0.75003  0.62493  Biso   1.000  Hf
  Hf88     1.0000 0.87417  0.50117  0.87461  Biso   1.000  Hf
  Hf89     1.0000 0.50498  0.64737  0.50534  Biso   1.000  Hf
  Hf90     1.0000 0.49632  0.60352  0.75309  Biso   1.000  Hf
  Hf91     1.0000 0.50497  0.85271  0.74455  Biso   1.000  Hf
  Hf92     1.0000 0.49635  0.89655  0.49679  Biso   1.000  Hf
  Hf93     1.0000 0.74421  0.64675  0.74483  Biso   1.000  Hf
  Hf94     1.0000 0.75242  0.60420  0.49750  Biso   1.000  Hf
  Hf95     1.0000 0.74423  0.85334  0.50501  Biso   1.000  Hf
  Hf96     1.0000 0.75241  0.89588  0.75235  Biso   1.000  Hf
  Li1      1.0000 0.12706  0.25014  0.12490  Biso   1.000  Li
