data_image0
_cell_length_a       10.0655
_cell_length_b       10.5395
_cell_length_c       5.06835
_cell_angle_alpha    89.7838
_cell_angle_beta     90.4663
_cell_angle_gamma    84.6213

_symmetry_space_group_name_H-M    "P 1"
_symmetry_int_tables_number       1

loop_
  _symmetry_equiv_pos_as_xyz
  'x, y, z'

loop_
  _atom_site_label
  _atom_site_occupancy
  _atom_site_fract_x
  _atom_site_fract_y
  _atom_site_fract_z
  _atom_site_thermal_displace_type
  _atom_site_B_iso_or_equiv
  _atom_site_type_symbol
  Hf1      1.0000 0.14020  0.03277  0.22428  Biso   1.000  Hf
  Hf2      1.0000 0.14772  0.27443  0.78200  Biso   1.000  Hf
  Hf3      1.0000 0.40716  0.22873  0.22970  Biso   1.000  Hf
  Hf4      1.0000 0.38999  0.97924  0.75625  Biso   1.000  Hf
  Hf5      1.0000 0.02569  0.20393  0.06058  Biso   1.000  Hf
  Hf6      1.0000 0.97052  0.06707  0.44527  Biso   1.000  Hf
  Hf7      1.0000 0.97157  0.31438  0.55499  Biso   1.000  Hf
  Hf8      1.0000 0.02914  0.44672  0.97781  Biso   1.000  Hf
  Hf9      1.0000 0.22114  0.19138  0.44070  Biso   1.000  Hf
  Hf10     1.0000 0.26678  0.12167  0.95923  Biso   1.000  Hf
  Hf11     1.0000 0.26383  0.36942  0.04206  Biso   1.000  Hf
  Hf12     1.0000 0.20939  0.43619  0.53847  Biso   1.000  Hf
  Hf13     1.0000 0.14430  0.56647  0.21760  Biso   1.000  Hf
  Hf14     1.0000 0.14429  0.79248  0.77081  Biso   1.000  Hf
  Hf15     1.0000 0.39822  0.73624  0.23253  Biso   1.000  Hf
  Hf16     1.0000 0.38121  0.48118  0.73611  Biso   1.000  Hf
  Hf17     1.0000 0.02396  0.70664  0.04219  Biso   1.000  Hf
  Hf18     1.0000 0.97375  0.56897  0.44959  Biso   1.000  Hf
  Hf19     1.0000 0.97527  0.81617  0.54468  Biso   1.000  Hf
  Hf20     1.0000 0.03053  0.95113  0.94758  Biso   1.000  Hf
  Hf21     1.0000 0.23128  0.69303  0.44577  Biso   1.000  Hf
  Hf22     1.0000 0.27121  0.63049  0.94600  Biso   1.000  Hf
  Hf23     1.0000 0.27139  0.87492  0.03956  Biso   1.000  Hf
  Hf24     1.0000 0.22252  0.93910  0.55127  Biso   1.000  Hf
  Hf25     1.0000 0.63578  0.01039  0.21985  Biso   1.000  Hf
  Hf26     1.0000 0.63638  0.24653  0.80883  Biso   1.000  Hf
  Hf27     1.0000 0.84148  0.22082  0.29346  Biso   1.000  Hf
  Hf28     1.0000 0.86725  0.97357  0.71305  Biso   1.000  Hf
  Hf29     1.0000 0.51205  0.11180  0.91945  Biso   1.000  Hf
  Hf30     1.0000 0.46241  0.05642  0.41659  Biso   1.000  Hf
  Hf31     1.0000 0.46436  0.31126  0.56776  Biso   1.000  Hf
  Hf32     1.0000 0.50753  0.38237  0.02144  Biso   1.000  Hf
  Hf33     1.0000 0.72716  0.11208  0.53190  Biso   1.000  Hf
  Hf34     1.0000 0.78139  0.09897  0.00398  Biso   1.000  Hf
  Hf35     1.0000 0.77375  0.35952  0.00694  Biso   1.000  Hf
  Hf36     1.0000 0.72542  0.37215  0.51781  Biso   1.000  Hf
  Hf37     1.0000 0.63987  0.49440  0.22067  Biso   1.000  Hf
  Hf38     1.0000 0.64207  0.74911  0.78132  Biso   1.000  Hf
  Hf39     1.0000 0.86175  0.72915  0.28626  Biso   1.000  Hf
  Hf40     1.0000 0.87036  0.47736  0.72374  Biso   1.000  Hf
  Hf41     1.0000 0.52174  0.62525  0.96782  Biso   1.000  Hf
  Hf42     1.0000 0.46987  0.55943  0.43103  Biso   1.000  Hf
  Hf43     1.0000 0.47329  0.80935  0.56354  Biso   1.000  Hf
  Hf44     1.0000 0.52041  0.87098  0.03569  Biso   1.000  Hf
  Hf45     1.0000 0.72568  0.62043  0.50113  Biso   1.000  Hf
  Hf46     1.0000 0.77163  0.60409  0.00423  Biso   1.000  Hf
  Hf47     1.0000 0.77117  0.85387  0.99392  Biso   1.000  Hf
  Hf48     1.0000 0.72590  0.86943  0.49194  Biso   1.000  Hf
  Mg1      1.0000 0.10017  0.32948  0.28059  Biso   1.000  Mg
