data_image0
_cell_length_a       10.17
_cell_length_b       5.1125
_cell_length_c       10.4385
_cell_angle_alpha    90.0094
_cell_angle_beta     80.0409
_cell_angle_gamma    89.9707

_symmetry_space_group_name_H-M    "P 1"
_symmetry_int_tables_number       1

loop_
  _symmetry_equiv_pos_as_xyz
  'x, y, z'

loop_
  _atom_site_label
  _atom_site_occupancy
  _atom_site_fract_x
  _atom_site_fract_y
  _atom_site_fract_z
  _atom_site_thermal_displace_type
  _atom_site_B_iso_or_equiv
  _atom_site_type_symbol
  Mg1      1.0000 0.13597  0.02828  0.15107  Biso   1.000  Mg
  Hf1      1.0000 0.14013  0.04290  0.64585  Biso   1.000  Hf
  Hf2      1.0000 0.63862  0.04007  0.14592  Biso   1.000  Hf
  Hf3      1.0000 0.63892  0.04222  0.64598  Biso   1.000  Hf
  Hf4      1.0000 0.14165  0.45427  0.39164  Biso   1.000  Hf
  Hf5      1.0000 0.14264  0.45952  0.89994  Biso   1.000  Hf
  Hf6      1.0000 0.63807  0.45848  0.39541  Biso   1.000  Hf
  Hf7      1.0000 0.63908  0.45845  0.89726  Biso   1.000  Hf
  Hf8      1.0000 0.35369  0.53850  0.10472  Biso   1.000  Hf
  Hf9      1.0000 0.35953  0.54463  0.60364  Biso   1.000  Hf
  Hf10     1.0000 0.86380  0.53971  0.10425  Biso   1.000  Hf
  Hf11     1.0000 0.86037  0.54169  0.60346  Biso   1.000  Hf
  Hf12     1.0000 0.35660  0.95907  0.35014  Biso   1.000  Hf
  Hf13     1.0000 0.35811  0.95994  0.85726  Biso   1.000  Hf
  Hf14     1.0000 0.86243  0.95902  0.35190  Biso   1.000  Hf
  Hf15     1.0000 0.86087  0.95774  0.85456  Biso   1.000  Hf
  O1       1.0000 0.03553  0.33086  0.07911  Biso   1.000  O
  O2       1.0000 0.03436  0.33566  0.58019  Biso   1.000  O
  O3       1.0000 0.53401  0.33339  0.07928  Biso   1.000  O
  O4       1.0000 0.53326  0.33441  0.57968  Biso   1.000  O
  O5       1.0000 0.02977  0.17273  0.33342  Biso   1.000  O
  O6       1.0000 0.03363  0.16829  0.82977  Biso   1.000  O
  O7       1.0000 0.53329  0.16554  0.32890  Biso   1.000  O
  O8       1.0000 0.53530  0.16651  0.82914  Biso   1.000  O
  O9       1.0000 0.46719  0.82883  0.16997  Biso   1.000  O
  O10      1.0000 0.46578  0.83381  0.67138  Biso   1.000  O
  O11      1.0000 0.96454  0.82748  0.17254  Biso   1.000  O
  O12      1.0000 0.96578  0.83517  0.67018  Biso   1.000  O
  O13      1.0000 0.46510  0.66743  0.42075  Biso   1.000  O
  O14      1.0000 0.46917  0.67297  0.92145  Biso   1.000  O
  O15      1.0000 0.96658  0.66821  0.42105  Biso   1.000  O
  O16      1.0000 0.96631  0.66683  0.92045  Biso   1.000  O
  O17      1.0000 0.27844  0.25429  0.24163  Biso   1.000  O
  O18      1.0000 0.27549  0.25817  0.73956  Biso   1.000  O
  O19      1.0000 0.77501  0.25629  0.24073  Biso   1.000  O
  O20      1.0000 0.77639  0.25745  0.74040  Biso   1.000  O
  O21      1.0000 0.27580  0.24349  0.49087  Biso   1.000  O
  O22      1.0000 0.28514  0.25541  0.98360  Biso   1.000  O
  O23      1.0000 0.77462  0.24440  0.49109  Biso   1.000  O
  O24      1.0000 0.77583  0.24060  0.99028  Biso   1.000  O
  O25      1.0000 0.22584  0.75946  0.00720  Biso   1.000  O
  O26      1.0000 0.22320  0.75896  0.50916  Biso   1.000  O
  O27      1.0000 0.72501  0.75614  0.00905  Biso   1.000  O
  O28      1.0000 0.72395  0.75765  0.50926  Biso   1.000  O
  O29      1.0000 0.22504  0.73602  0.25984  Biso   1.000  O
  O30      1.0000 0.22385  0.74459  0.75841  Biso   1.000  O
  O31      1.0000 0.72164  0.74161  0.25969  Biso   1.000  O
  O32      1.0000 0.72468  0.74287  0.75898  Biso   1.000  O
