data_image0
_cell_length_a       10.066
_cell_length_b       5.09436
_cell_length_c       10.4343
_cell_angle_alpha    89.9115
_cell_angle_beta     89.9281
_cell_angle_gamma    89.9521

_symmetry_space_group_name_H-M    "P 1"
_symmetry_int_tables_number       1

loop_
  _symmetry_equiv_pos_as_xyz
  'x, y, z'

loop_
  _atom_site_label
  _atom_site_occupancy
  _atom_site_fract_x
  _atom_site_fract_y
  _atom_site_fract_z
  _atom_site_thermal_displace_type
  _atom_site_B_iso_or_equiv
  _atom_site_type_symbol
  Mg1      1.0000 0.13665  0.02808  0.17638  Biso   1.000  Mg
  Hf1      1.0000 0.14037  0.04182  0.67250  Biso   1.000  Hf
  Hf2      1.0000 0.14239  0.45836  0.41836  Biso   1.000  Hf
  Hf3      1.0000 0.14307  0.45683  0.92751  Biso   1.000  Hf
  Hf4      1.0000 0.35374  0.53860  0.17231  Biso   1.000  Hf
  Hf5      1.0000 0.36020  0.54368  0.67245  Biso   1.000  Hf
  Hf6      1.0000 0.35741  0.96038  0.41869  Biso   1.000  Hf
  Hf7      1.0000 0.35737  0.95852  0.92611  Biso   1.000  Hf
  Hf8      1.0000 0.63869  0.04024  0.07782  Biso   1.000  Hf
  Hf9      1.0000 0.63823  0.04165  0.57652  Biso   1.000  Hf
  Hf10     1.0000 0.63827  0.46077  0.32641  Biso   1.000  Hf
  Hf11     1.0000 0.63867  0.45802  0.82812  Biso   1.000  Hf
  Hf12     1.0000 0.86403  0.53964  0.07840  Biso   1.000  Hf
  Hf13     1.0000 0.86010  0.54113  0.57684  Biso   1.000  Hf
  Hf14     1.0000 0.86304  0.96102  0.32545  Biso   1.000  Hf
  Hf15     1.0000 0.86044  0.95786  0.82818  Biso   1.000  Hf
  O1       1.0000 0.03167  0.32026  0.08279  Biso   1.000  O
  O2       1.0000 0.03117  0.32594  0.58280  Biso   1.000  O
  O3       1.0000 0.02712  0.18420  0.33619  Biso   1.000  O
  O4       1.0000 0.03045  0.17600  0.83250  Biso   1.000  O
  O5       1.0000 0.46954  0.82414  0.08411  Biso   1.000  O
  O6       1.0000 0.46731  0.83009  0.58336  Biso   1.000  O
  O7       1.0000 0.46889  0.67516  0.33328  Biso   1.000  O
  O8       1.0000 0.46806  0.67139  0.83386  Biso   1.000  O
  O9       1.0000 0.27898  0.25020  0.29907  Biso   1.000  O
  O10      1.0000 0.27500  0.24742  0.79539  Biso   1.000  O
  O11      1.0000 0.28306  0.25890  0.04233  Biso   1.000  O
  O12      1.0000 0.27582  0.25365  0.54676  Biso   1.000  O
  O13      1.0000 0.22437  0.74619  0.29716  Biso   1.000  O
  O14      1.0000 0.22436  0.74874  0.79577  Biso   1.000  O
  O15      1.0000 0.22631  0.74922  0.04472  Biso   1.000  O
  O16      1.0000 0.22369  0.75370  0.54650  Biso   1.000  O
  O17      1.0000 0.53171  0.32840  0.16592  Biso   1.000  O
  O18      1.0000 0.53225  0.33061  0.66554  Biso   1.000  O
  O19      1.0000 0.53201  0.17104  0.41507  Biso   1.000  O
  O20      1.0000 0.53265  0.16866  0.91568  Biso   1.000  O
  O21      1.0000 0.96761  0.81915  0.16904  Biso   1.000  O
  O22      1.0000 0.96868  0.82576  0.66723  Biso   1.000  O
  O23      1.0000 0.96977  0.67880  0.41846  Biso   1.000  O
  O24      1.0000 0.96962  0.67448  0.91728  Biso   1.000  O
  O25      1.0000 0.77571  0.24563  0.95316  Biso   1.000  O
  O26      1.0000 0.77436  0.25189  0.45384  Biso   1.000  O
  O27      1.0000 0.77501  0.25211  0.20333  Biso   1.000  O
  O28      1.0000 0.77541  0.25118  0.70351  Biso   1.000  O
  O29      1.0000 0.72467  0.74579  0.95323  Biso   1.000  O
  O30      1.0000 0.72498  0.75038  0.45334  Biso   1.000  O
  O31      1.0000 0.72269  0.75256  0.20340  Biso   1.000  O
  O32      1.0000 0.72439  0.75177  0.70335  Biso   1.000  O
