data_image0
_cell_length_a       9.97316
_cell_length_b       10.3299
_cell_length_c       10.0185
_cell_angle_alpha    90.0918
_cell_angle_beta     89.9515
_cell_angle_gamma    90.0442

_symmetry_space_group_name_H-M    "P 1"
_symmetry_int_tables_number       1

loop_
  _symmetry_equiv_pos_as_xyz
  'x, y, z'

loop_
  _atom_site_label
  _atom_site_occupancy
  _atom_site_fract_x
  _atom_site_fract_y
  _atom_site_fract_z
  _atom_site_thermal_displace_type
  _atom_site_B_iso_or_equiv
  _atom_site_type_symbol
  Mg1      1.0000 0.13106  0.01771  0.11714  Biso   1.000  Mg
  Hf1      1.0000 0.13423  0.01745  0.62839  Biso   1.000  Hf
  Hf2      1.0000 0.13571  0.51571  0.12618  Biso   1.000  Hf
  Hf3      1.0000 0.13449  0.51700  0.62671  Biso   1.000  Hf
  Hf4      1.0000 0.63367  0.01632  0.12480  Biso   1.000  Hf
  Hf5      1.0000 0.63284  0.01579  0.62401  Biso   1.000  Hf
  Hf6      1.0000 0.63371  0.51639  0.12646  Biso   1.000  Hf
  Hf7      1.0000 0.63413  0.51638  0.62616  Biso   1.000  Hf
  Hf8      1.0000 0.13460  0.22994  0.37391  Biso   1.000  Hf
  Hf9      1.0000 0.13504  0.23149  0.87792  Biso   1.000  Hf
  Hf10     1.0000 0.13618  0.73514  0.37676  Biso   1.000  Hf
  Hf11     1.0000 0.13615  0.73572  0.87900  Biso   1.000  Hf
  Hf12     1.0000 0.63358  0.23301  0.37531  Biso   1.000  Hf
  Hf13     1.0000 0.63368  0.23345  0.87513  Biso   1.000  Hf
  Hf14     1.0000 0.63378  0.73454  0.37585  Biso   1.000  Hf
  Hf15     1.0000 0.63443  0.73448  0.87612  Biso   1.000  Hf
  Hf16     1.0000 0.36259  0.26278  0.12719  Biso   1.000  Hf
  Hf17     1.0000 0.36476  0.26640  0.62636  Biso   1.000  Hf
  Hf18     1.0000 0.36321  0.76785  0.12680  Biso   1.000  Hf
  Hf19     1.0000 0.36617  0.76821  0.62731  Biso   1.000  Hf
  Hf20     1.0000 0.86573  0.26481  0.12603  Biso   1.000  Hf
  Hf21     1.0000 0.86624  0.26616  0.62455  Biso   1.000  Hf
  Hf22     1.0000 0.86674  0.76921  0.12575  Biso   1.000  Hf
  Hf23     1.0000 0.86626  0.76637  0.62557  Biso   1.000  Hf
  Hf24     1.0000 0.36529  0.48307  0.37638  Biso   1.000  Hf
  Hf25     1.0000 0.36555  0.48320  0.87653  Biso   1.000  Hf
  Hf26     1.0000 0.36117  0.98440  0.37315  Biso   1.000  Hf
  Hf27     1.0000 0.36154  0.98358  0.88110  Biso   1.000  Hf
  Hf28     1.0000 0.86596  0.48397  0.37664  Biso   1.000  Hf
  Hf29     1.0000 0.86547  0.48411  0.87628  Biso   1.000  Hf
  Hf30     1.0000 0.86909  0.98348  0.37309  Biso   1.000  Hf
  Hf31     1.0000 0.86602  0.98439  0.87428  Biso   1.000  Hf
  Hf32     1.0000 0.03054  0.18281  0.19971  Biso   1.000  Hf
  Hf33     1.0000 0.03714  0.18685  0.69301  Biso   1.000  Hf
  Hf34     1.0000 0.03510  0.68339  0.19557  Biso   1.000  Hf
  Hf35     1.0000 0.03651  0.68518  0.69504  Biso   1.000  Hf
  Hf36     1.0000 0.53725  0.18515  0.19281  Biso   1.000  Hf
  Hf37     1.0000 0.53618  0.18482  0.69329  Biso   1.000  Hf
  Hf38     1.0000 0.53480  0.68327  0.19612  Biso   1.000  Hf
  Hf39     1.0000 0.53579  0.68379  0.69544  Biso   1.000  Hf
  Hf40     1.0000 0.03482  0.06629  0.44892  Biso   1.000  Hf
  Hf41     1.0000 0.03411  0.06769  0.93455  Biso   1.000  Hf
  Hf42     1.0000 0.03590  0.56564  0.44585  Biso   1.000  Hf
  Hf43     1.0000 0.03568  0.56676  0.94566  Biso   1.000  Hf
  Hf44     1.0000 0.53464  0.06579  0.44351  Biso   1.000  Hf
  Hf45     1.0000 0.53596  0.06613  0.94407  Biso   1.000  Hf
  Hf46     1.0000 0.53544  0.56611  0.44526  Biso   1.000  Hf
  Hf47     1.0000 0.53585  0.56629  0.94508  Biso   1.000  Hf
  Hf48     1.0000 0.46421  0.43282  0.19582  Biso   1.000  Hf
  Hf49     1.0000 0.46395  0.43439  0.69493  Biso   1.000  Hf
  Hf50     1.0000 0.46596  0.93405  0.19506  Biso   1.000  Hf
  Hf51     1.0000 0.46392  0.93467  0.69691  Biso   1.000  Hf
  Hf52     1.0000 0.96483  0.43419  0.19517  Biso   1.000  Hf
  Hf53     1.0000 0.96373  0.43512  0.69493  Biso   1.000  Hf
  Hf54     1.0000 0.96767  0.93143  0.19720  Biso   1.000  Hf
  Hf55     1.0000 0.96286  0.93446  0.69277  Biso   1.000  Hf
  Hf56     1.0000 0.46427  0.31588  0.44544  Biso   1.000  Hf
  Hf57     1.0000 0.46436  0.31628  0.94389  Biso   1.000  Hf
  Hf58     1.0000 0.46583  0.81726  0.44806  Biso   1.000  Hf
  Hf59     1.0000 0.46546  0.81700  0.94591  Biso   1.000  Hf
  Hf60     1.0000 0.96427  0.31684  0.44454  Biso   1.000  Hf
  Hf61     1.0000 0.96514  0.31752  0.94637  Biso   1.000  Hf
  Hf62     1.0000 0.96451  0.81509  0.44482  Biso   1.000  Hf
  Hf63     1.0000 0.96248  0.81532  0.94262  Biso   1.000  Hf
  Hf64     1.0000 0.27475  0.12193  0.25246  Biso   1.000  Hf
  Hf65     1.0000 0.27174  0.11847  0.75027  Biso   1.000  Hf
  Hf66     1.0000 0.26974  0.61498  0.25005  Biso   1.000  Hf
  Hf67     1.0000 0.27083  0.61895  0.75088  Biso   1.000  Hf
  Hf68     1.0000 0.76920  0.11614  0.24864  Biso   1.000  Hf
  Hf69     1.0000 0.76996  0.11745  0.74774  Biso   1.000  Hf
  Hf70     1.0000 0.77088  0.61736  0.24937  Biso   1.000  Hf
  Hf71     1.0000 0.77066  0.61759  0.74957  Biso   1.000  Hf
  Hf72     1.0000 0.26980  0.13155  0.50159  Biso   1.000  Hf
  Hf73     1.0000 0.27239  0.13296  0.99838  Biso   1.000  Hf
  Hf74     1.0000 0.27133  0.63289  0.50034  Biso   1.000  Hf
  Hf75     1.0000 0.27138  0.63049  0.00071  Biso   1.000  Hf
  Hf76     1.0000 0.76978  0.13347  0.49809  Biso   1.000  Hf
  Hf77     1.0000 0.77081  0.13306  0.99828  Biso   1.000  Hf
  Hf78     1.0000 0.76974  0.63272  0.49956  Biso   1.000  Hf
  Hf79     1.0000 0.77023  0.63279  0.99966  Biso   1.000  Hf
  Hf80     1.0000 0.22973  0.38225  0.50001  Biso   1.000  Hf
  Hf81     1.0000 0.22969  0.38179  0.00049  Biso   1.000  Hf
  Hf82     1.0000 0.22858  0.88282  0.50263  Biso   1.000  Hf
  Hf83     1.0000 0.22897  0.87945  0.00202  Biso   1.000  Hf
  Hf84     1.0000 0.72910  0.38301  0.49929  Biso   1.000  Hf
  Hf85     1.0000 0.72889  0.38300  0.99908  Biso   1.000  Hf
  Hf86     1.0000 0.73117  0.88320  0.49807  Biso   1.000  Hf
  Hf87     1.0000 0.72966  0.88283  0.99912  Biso   1.000  Hf
  Hf88     1.0000 0.22751  0.36803  0.24967  Biso   1.000  Hf
  Hf89     1.0000 0.22922  0.36855  0.75037  Biso   1.000  Hf
  Hf90     1.0000 0.23697  0.86105  0.25593  Biso   1.000  Hf
  Hf91     1.0000 0.22889  0.86909  0.75135  Biso   1.000  Hf
  Hf92     1.0000 0.73018  0.36721  0.24959  Biso   1.000  Hf
  Hf93     1.0000 0.72982  0.36772  0.74923  Biso   1.000  Hf
  Hf94     1.0000 0.72857  0.86715  0.24861  Biso   1.000  Hf
  Hf95     1.0000 0.72844  0.86704  0.74802  Biso   1.000  Hf
