data_image0
_cell_length_a       5.07793
_cell_length_b       10.2352
_cell_length_c       10.4388
_cell_angle_alpha    89.9846
_cell_angle_beta     80.0652
_cell_angle_gamma    89.9559

_symmetry_space_group_name_H-M    "P 1"
_symmetry_int_tables_number       1

loop_
  _symmetry_equiv_pos_as_xyz
  'x, y, z'

loop_
  _atom_site_label
  _atom_site_occupancy
  _atom_site_fract_x
  _atom_site_fract_y
  _atom_site_fract_z
  _atom_site_thermal_displace_type
  _atom_site_B_iso_or_equiv
  _atom_site_type_symbol
  Mg1      1.0000 0.27119  0.01445  0.15130  Biso   1.000  Mg
  Hf1      1.0000 0.27879  0.02086  0.64518  Biso   1.000  Hf
  Hf2      1.0000 0.27861  0.52032  0.14514  Biso   1.000  Hf
  Hf3      1.0000 0.27956  0.52187  0.64681  Biso   1.000  Hf
  Hf4      1.0000 0.27939  0.22694  0.39290  Biso   1.000  Hf
  Hf5      1.0000 0.28094  0.22636  0.89951  Biso   1.000  Hf
  Hf6      1.0000 0.28012  0.72965  0.39411  Biso   1.000  Hf
  Hf7      1.0000 0.28203  0.73200  0.89802  Biso   1.000  Hf
  Hf8      1.0000 0.72003  0.26367  0.10442  Biso   1.000  Hf
  Hf9      1.0000 0.71862  0.27145  0.60386  Biso   1.000  Hf
  Hf10     1.0000 0.71495  0.77547  0.10482  Biso   1.000  Hf
  Hf11     1.0000 0.72100  0.77181  0.60338  Biso   1.000  Hf
  Hf12     1.0000 0.71944  0.47860  0.35305  Biso   1.000  Hf
  Hf13     1.0000 0.72198  0.47853  0.85546  Biso   1.000  Hf
  Hf14     1.0000 0.71847  0.98012  0.34901  Biso   1.000  Hf
  Hf15     1.0000 0.71660  0.98018  0.85648  Biso   1.000  Hf
  O1       1.0000 0.07233  0.16614  0.08003  Biso   1.000  O
  O2       1.0000 0.06731  0.16796  0.58015  Biso   1.000  O
  O3       1.0000 0.06621  0.66689  0.07965  Biso   1.000  O
  O4       1.0000 0.06885  0.66754  0.57981  Biso   1.000  O
  O5       1.0000 0.06073  0.08461  0.33494  Biso   1.000  O
  O6       1.0000 0.07013  0.08271  0.82877  Biso   1.000  O
  O7       1.0000 0.06720  0.58278  0.32905  Biso   1.000  O
  O8       1.0000 0.06891  0.58414  0.82980  Biso   1.000  O
  O9       1.0000 0.93139  0.41533  0.17032  Biso   1.000  O
  O10      1.0000 0.93231  0.41714  0.67091  Biso   1.000  O
  O11      1.0000 0.92874  0.91576  0.17053  Biso   1.000  O
  O12      1.0000 0.93075  0.91732  0.67050  Biso   1.000  O
  O13      1.0000 0.93067  0.33380  0.42096  Biso   1.000  O
  O14      1.0000 0.93667  0.33478  0.92108  Biso   1.000  O
  O15      1.0000 0.93097  0.83274  0.41995  Biso   1.000  O
  O16      1.0000 0.93519  0.83497  0.92051  Biso   1.000  O
  O17      1.0000 0.55402  0.12865  0.24300  Biso   1.000  O
  O18      1.0000 0.55161  0.12809  0.73884  Biso   1.000  O
  O19      1.0000 0.55180  0.62696  0.23986  Biso   1.000  O
  O20      1.0000 0.55332  0.62956  0.74079  Biso   1.000  O
  O21      1.0000 0.54947  0.12207  0.49128  Biso   1.000  O
  O22      1.0000 0.57002  0.12730  0.98349  Biso   1.000  O
  O23      1.0000 0.55245  0.62168  0.49046  Biso   1.000  O
  O24      1.0000 0.55170  0.62036  0.99053  Biso   1.000  O
  O25      1.0000 0.44923  0.37886  0.00963  Biso   1.000  O
  O26      1.0000 0.44681  0.37960  0.50959  Biso   1.000  O
  O27      1.0000 0.45240  0.87854  0.00626  Biso   1.000  O
  O28      1.0000 0.44710  0.87878  0.50887  Biso   1.000  O
  O29      1.0000 0.44589  0.37136  0.25929  Biso   1.000  O
  O30      1.0000 0.44946  0.37137  0.75990  Biso   1.000  O
  O31      1.0000 0.44709  0.86793  0.26018  Biso   1.000  O
  O32      1.0000 0.44753  0.87201  0.75764  Biso   1.000  O
