data_image0
_cell_length_a       10.0182
_cell_length_b       10.1586
_cell_length_c       4.97943
_cell_angle_alpha    90.0001
_cell_angle_beta     89.9982
_cell_angle_gamma    89.9961

_symmetry_space_group_name_H-M    "P 1"
_symmetry_int_tables_number       1

loop_
  _symmetry_equiv_pos_as_xyz
  'x, y, z'

loop_
  _atom_site_label
  _atom_site_occupancy
  _atom_site_fract_x
  _atom_site_fract_y
  _atom_site_fract_z
  _atom_site_thermal_displace_type
  _atom_site_B_iso_or_equiv
  _atom_site_type_symbol
  Mg1      1.0000 0.12483  0.99982  0.25050  Biso   1.000  Mg
  Hf1      1.0000 0.12484  0.49982  0.25052  Biso   1.000  Hf
  Hf2      1.0000 0.62484  0.99982  0.25051  Biso   1.000  Hf
  Hf3      1.0000 0.62483  0.49981  0.25053  Biso   1.000  Hf
  Hf4      1.0000 0.12484  0.24749  0.75055  Biso   1.000  Hf
  Hf5      1.0000 0.12484  0.75215  0.75053  Biso   1.000  Hf
  Hf6      1.0000 0.62484  0.24855  0.75055  Biso   1.000  Hf
  Hf7      1.0000 0.62484  0.75108  0.75054  Biso   1.000  Hf
  Hf8      1.0000 0.37303  0.24841  0.24969  Biso   1.000  Hf
  Hf9      1.0000 0.37303  0.75124  0.25139  Biso   1.000  Hf
  Hf10     1.0000 0.87665  0.24841  0.25140  Biso   1.000  Hf
  Hf11     1.0000 0.87663  0.75123  0.24967  Biso   1.000  Hf
  Hf12     1.0000 0.36864  0.99981  0.75050  Biso   1.000  Hf
  Hf13     1.0000 0.37515  0.49982  0.75052  Biso   1.000  Hf
  Hf14     1.0000 0.88103  0.99983  0.75049  Biso   1.000  Hf
  Hf15     1.0000 0.87452  0.49982  0.75052  Biso   1.000  Hf
  Hf16     1.0000 0.99515  0.14257  0.99026  Biso   1.000  Hf
  Hf17     1.0000 0.00086  0.64056  0.00334  Biso   1.000  Hf
  Hf18     1.0000 0.50121  0.14496  0.00522  Biso   1.000  Hf
  Hf19     1.0000 0.50022  0.64478  0.00012  Biso   1.000  Hf
  Hf20     1.0000 0.99912  0.11204  0.49789  Biso   1.000  Hf
  Hf21     1.0000 0.99968  0.60751  0.50232  Biso   1.000  Hf
  Hf22     1.0000 0.50068  0.10438  0.50467  Biso   1.000  Hf
  Hf23     1.0000 0.49917  0.60482  0.49999  Biso   1.000  Hf
  Hf24     1.0000 0.00089  0.35907  0.49770  Biso   1.000  Hf
  Hf25     1.0000 0.99514  0.85707  0.51076  Biso   1.000  Hf
  Hf26     1.0000 0.50024  0.35487  0.50092  Biso   1.000  Hf
  Hf27     1.0000 0.50118  0.85469  0.49588  Biso   1.000  Hf
  Hf28     1.0000 0.99969  0.39213  0.99872  Biso   1.000  Hf
  Hf29     1.0000 0.99909  0.88759  0.00313  Biso   1.000  Hf
  Hf30     1.0000 0.49918  0.39483  0.00106  Biso   1.000  Hf
  Hf31     1.0000 0.50068  0.89527  0.99643  Biso   1.000  Hf
  Hf32     1.0000 0.25452  0.14257  0.51077  Biso   1.000  Hf
  Hf33     1.0000 0.24879  0.64057  0.49770  Biso   1.000  Hf
  Hf34     1.0000 0.74848  0.14495  0.49583  Biso   1.000  Hf
  Hf35     1.0000 0.74944  0.64477  0.50092  Biso   1.000  Hf
  Hf36     1.0000 0.25057  0.11206  0.00314  Biso   1.000  Hf
  Hf37     1.0000 0.24998  0.60751  0.99871  Biso   1.000  Hf
  Hf38     1.0000 0.74898  0.10437  0.99638  Biso   1.000  Hf
  Hf39     1.0000 0.75049  0.60481  0.00105  Biso   1.000  Hf
  Hf40     1.0000 0.24880  0.35908  0.00334  Biso   1.000  Hf
  Hf41     1.0000 0.25451  0.85707  0.99028  Biso   1.000  Hf
  Hf42     1.0000 0.74945  0.35486  0.00009  Biso   1.000  Hf
  Hf43     1.0000 0.74845  0.85468  0.00523  Biso   1.000  Hf
  Hf44     1.0000 0.25001  0.39214  0.50231  Biso   1.000  Hf
  Hf45     1.0000 0.25055  0.88760  0.49792  Biso   1.000  Hf
  Hf46     1.0000 0.75052  0.39483  0.49996  Biso   1.000  Hf
  Hf47     1.0000 0.74897  0.89526  0.50468  Biso   1.000  Hf
