data_image0
_cell_length_a       4.95572
_cell_length_b       10.3717
_cell_length_c       9.96383
_cell_angle_alpha    90.7142
_cell_angle_beta     89.1809
_cell_angle_gamma    90.4444

_symmetry_space_group_name_H-M    "P 1"
_symmetry_int_tables_number       1

loop_
  _symmetry_equiv_pos_as_xyz
  'x, y, z'

loop_
  _atom_site_label
  _atom_site_occupancy
  _atom_site_fract_x
  _atom_site_fract_y
  _atom_site_fract_z
  _atom_site_thermal_displace_type
  _atom_site_B_iso_or_equiv
  _atom_site_type_symbol
  Mn1      1.0000 0.24189  0.03581  0.11068  Biso   1.000  Mn
  Hf1      1.0000 0.26267  0.01590  0.62481  Biso   1.000  Hf
  Hf2      1.0000 0.26722  0.51467  0.12765  Biso   1.000  Hf
  Hf3      1.0000 0.26956  0.51836  0.62489  Biso   1.000  Hf
  Hf4      1.0000 0.26676  0.22761  0.37232  Biso   1.000  Hf
  Hf5      1.0000 0.26015  0.23770  0.87289  Biso   1.000  Hf
  Hf6      1.0000 0.28158  0.73356  0.37738  Biso   1.000  Hf
  Hf7      1.0000 0.26297  0.73819  0.88057  Biso   1.000  Hf
  Hf8      1.0000 0.72722  0.26207  0.12128  Biso   1.000  Hf
  Hf9      1.0000 0.73004  0.26641  0.62344  Biso   1.000  Hf
  Hf10     1.0000 0.74631  0.76163  0.12209  Biso   1.000  Hf
  Hf11     1.0000 0.73756  0.76972  0.62812  Biso   1.000  Hf
  Hf12     1.0000 0.73598  0.48098  0.37578  Biso   1.000  Hf
  Hf13     1.0000 0.72749  0.48728  0.87416  Biso   1.000  Hf
  Hf14     1.0000 0.73638  0.98291  0.37165  Biso   1.000  Hf
  Hf15     1.0000 0.71161  0.98580  0.88148  Biso   1.000  Hf
  Hf16     1.0000 0.06269  0.17988  0.19227  Biso   1.000  Hf
  Hf17     1.0000 0.06787  0.18530  0.69483  Biso   1.000  Hf
  Hf18     1.0000 0.07946  0.68574  0.19812  Biso   1.000  Hf
  Hf19     1.0000 0.07206  0.68525  0.69754  Biso   1.000  Hf
  Hf20     1.0000 0.07290  0.06507  0.44741  Biso   1.000  Hf
  Hf21     1.0000 0.05457  0.07137  0.95522  Biso   1.000  Hf
  Hf22     1.0000 0.07757  0.56460  0.44411  Biso   1.000  Hf
  Hf23     1.0000 0.06187  0.57038  0.94995  Biso   1.000  Hf
  Hf24     1.0000 0.93044  0.42868  0.19412  Biso   1.000  Hf
  Hf25     1.0000 0.92583  0.43521  0.69308  Biso   1.000  Hf
  Hf26     1.0000 0.99159  0.94051  0.18747  Biso   1.000  Hf
  Hf27     1.0000 0.92597  0.93704  0.70081  Biso   1.000  Hf
  Hf28     1.0000 0.93109  0.31368  0.44267  Biso   1.000  Hf
  Hf29     1.0000 0.91660  0.31756  0.94098  Biso   1.000  Hf
  Hf30     1.0000 0.94568  0.82029  0.45008  Biso   1.000  Hf
  Hf31     1.0000 0.91116  0.81944  0.93946  Biso   1.000  Hf
  Hf32     1.0000 0.51500  0.09940  0.23553  Biso   1.000  Hf
  Hf33     1.0000 0.53607  0.11873  0.74793  Biso   1.000  Hf
  Hf34     1.0000 0.54430  0.60615  0.24866  Biso   1.000  Hf
  Hf35     1.0000 0.53799  0.62063  0.75163  Biso   1.000  Hf
  Hf36     1.0000 0.54700  0.13206  0.49244  Biso   1.000  Hf
  Hf37     1.0000 0.51469  0.13549  0.99755  Biso   1.000  Hf
  Hf38     1.0000 0.54897  0.63322  0.50069  Biso   1.000  Hf
  Hf39     1.0000 0.53363  0.63596  0.00057  Biso   1.000  Hf
  Hf40     1.0000 0.45912  0.38095  0.49869  Biso   1.000  Hf
  Hf41     1.0000 0.45306  0.38509  0.99776  Biso   1.000  Hf
  Hf42     1.0000 0.46923  0.88430  0.50384  Biso   1.000  Hf
  Hf43     1.0000 0.43992  0.89303  0.01429  Biso   1.000  Hf
  Hf44     1.0000 0.46154  0.35894  0.24768  Biso   1.000  Hf
  Hf45     1.0000 0.45481  0.36977  0.74818  Biso   1.000  Hf
  Hf46     1.0000 0.52586  0.84767  0.26192  Biso   1.000  Hf
  Hf47     1.0000 0.45375  0.86987  0.75514  Biso   1.000  Hf
