data_image0
_cell_length_a       5.00424
_cell_length_b       10.4243
_cell_length_c       10.0432
_cell_angle_alpha    89.6964
_cell_angle_beta     90.232
_cell_angle_gamma    90.0754

_symmetry_space_group_name_H-M    "P 1"
_symmetry_int_tables_number       1

loop_
  _symmetry_equiv_pos_as_xyz
  'x, y, z'

loop_
  _atom_site_label
  _atom_site_occupancy
  _atom_site_fract_x
  _atom_site_fract_y
  _atom_site_fract_z
  _atom_site_thermal_displace_type
  _atom_site_B_iso_or_equiv
  _atom_site_type_symbol
  Hf1      1.0000 0.26439  0.02216  0.11959  Biso   1.000  Hf
  Hf2      1.0000 0.26488  0.22952  0.38436  Biso   1.000  Hf
  Hf3      1.0000 0.69604  0.25841  0.12468  Biso   1.000  Hf
  Hf4      1.0000 0.73776  0.48333  0.37407  Biso   1.000  Hf
  Hf5      1.0000 0.03227  0.17684  0.21545  Biso   1.000  Hf
  Hf6      1.0000 0.07131  0.06410  0.45104  Biso   1.000  Hf
  Hf7      1.0000 0.91724  0.43170  0.19242  Biso   1.000  Hf
  Hf8      1.0000 0.93366  0.31928  0.44971  Biso   1.000  Hf
  Hf9      1.0000 0.52068  0.11485  0.25324  Biso   1.000  Hf
  Hf10     1.0000 0.54684  0.13208  0.50041  Biso   1.000  Hf
  Hf11     1.0000 0.46538  0.38308  0.49913  Biso   1.000  Hf
  Hf12     1.0000 0.43055  0.36603  0.24793  Biso   1.000  Hf
  Hf13     1.0000 0.27366  0.01383  0.62661  Biso   1.000  Hf
  Hf14     1.0000 0.28212  0.22541  0.87150  Biso   1.000  Hf
  Hf15     1.0000 0.73895  0.26596  0.62641  Biso   1.000  Hf
  Hf16     1.0000 0.73603  0.48283  0.87702  Biso   1.000  Hf
  Hf17     1.0000 0.07661  0.18124  0.69192  Biso   1.000  Hf
  Hf18     1.0000 0.08772  0.05961  0.93565  Biso   1.000  Hf
  Hf19     1.0000 0.93963  0.43136  0.70215  Biso   1.000  Hf
  Hf20     1.0000 0.94377  0.31493  0.95373  Biso   1.000  Hf
  Hf21     1.0000 0.54995  0.11394  0.74688  Biso   1.000  Hf
  Hf22     1.0000 0.57579  0.11995  0.99236  Biso   1.000  Hf
  Hf23     1.0000 0.45624  0.38314  0.99885  Biso   1.000  Hf
  Hf24     1.0000 0.47104  0.36589  0.74962  Biso   1.000  Hf
  Hf25     1.0000 0.26603  0.53470  0.12442  Biso   1.000  Hf
  Hf26     1.0000 0.27152  0.73599  0.37785  Biso   1.000  Hf
  Hf27     1.0000 0.72872  0.77073  0.12733  Biso   1.000  Hf
  Hf28     1.0000 0.73447  0.98444  0.37424  Biso   1.000  Hf
  Hf29     1.0000 0.06453  0.68777  0.20150  Biso   1.000  Hf
  Hf30     1.0000 0.06818  0.56678  0.44677  Biso   1.000  Hf
  Hf31     1.0000 0.92748  0.93621  0.19282  Biso   1.000  Hf
  Hf32     1.0000 0.93054  0.81673  0.44405  Biso   1.000  Hf
  Hf33     1.0000 0.54620  0.62186  0.25193  Biso   1.000  Hf
  Hf34     1.0000 0.53993  0.63199  0.50019  Biso   1.000  Hf
  Hf35     1.0000 0.46535  0.88306  0.49927  Biso   1.000  Hf
  Hf36     1.0000 0.45872  0.86884  0.24981  Biso   1.000  Hf
  Hf37     1.0000 0.27325  0.51445  0.62622  Biso   1.000  Hf
  Hf38     1.0000 0.27153  0.73524  0.87333  Biso   1.000  Hf
  Hf39     1.0000 0.73987  0.76386  0.62346  Biso   1.000  Hf
  Hf40     1.0000 0.74108  0.97701  0.87357  Biso   1.000  Hf
  Hf41     1.0000 0.07864  0.68199  0.69294  Biso   1.000  Hf
  Hf42     1.0000 0.07189  0.56982  0.94422  Biso   1.000  Hf
  Hf43     1.0000 0.93944  0.92835  0.69454  Biso   1.000  Hf
  Hf44     1.0000 0.93409  0.81395  0.94713  Biso   1.000  Hf
  Hf45     1.0000 0.54638  0.61447  0.75010  Biso   1.000  Hf
  Hf46     1.0000 0.54500  0.63514  0.99820  Biso   1.000  Hf
  Hf47     1.0000 0.45938  0.88050  0.99931  Biso   1.000  Hf
  Hf48     1.0000 0.47058  0.86397  0.74787  Biso   1.000  Hf
  Mn1      1.0000 0.18395  0.30879  0.10566  Biso   1.000  Mn
