data_image0
_cell_length_a       10.0786
_cell_length_b       10.2546
_cell_length_c       10.4086
_cell_angle_alpha    89.9267
_cell_angle_beta     80.3182
_cell_angle_gamma    89.987

_symmetry_space_group_name_H-M    "P 1"
_symmetry_int_tables_number       1

loop_
  _symmetry_equiv_pos_as_xyz
  'x, y, z'

loop_
  _atom_site_label
  _atom_site_occupancy
  _atom_site_fract_x
  _atom_site_fract_y
  _atom_site_fract_z
  _atom_site_thermal_displace_type
  _atom_site_B_iso_or_equiv
  _atom_site_type_symbol
  Mn1      1.0000 0.13660  0.02402  0.15053  Biso   1.000  Mn
  Hf1      1.0000 0.13892  0.02117  0.64554  Biso   1.000  Hf
  Hf2      1.0000 0.13986  0.52158  0.14629  Biso   1.000  Hf
  Hf3      1.0000 0.13917  0.52141  0.64606  Biso   1.000  Hf
  Hf4      1.0000 0.63876  0.02199  0.14557  Biso   1.000  Hf
  Hf5      1.0000 0.63782  0.02052  0.64607  Biso   1.000  Hf
  Hf6      1.0000 0.63891  0.52247  0.14556  Biso   1.000  Hf
  Hf7      1.0000 0.63902  0.52140  0.64649  Biso   1.000  Hf
  Hf8      1.0000 0.13958  0.22831  0.39300  Biso   1.000  Hf
  Hf9      1.0000 0.13850  0.22496  0.89938  Biso   1.000  Hf
  Hf10     1.0000 0.13887  0.73019  0.39469  Biso   1.000  Hf
  Hf11     1.0000 0.13930  0.73008  0.89655  Biso   1.000  Hf
  Hf12     1.0000 0.63864  0.22837  0.39565  Biso   1.000  Hf
  Hf13     1.0000 0.63834  0.22870  0.89617  Biso   1.000  Hf
  Hf14     1.0000 0.64017  0.73002  0.39547  Biso   1.000  Hf
  Hf15     1.0000 0.63759  0.72822  0.89778  Biso   1.000  Hf
  Hf16     1.0000 0.35923  0.26949  0.10520  Biso   1.000  Hf
  Hf17     1.0000 0.36059  0.27172  0.60496  Biso   1.000  Hf
  Hf18     1.0000 0.35660  0.77584  0.10481  Biso   1.000  Hf
  Hf19     1.0000 0.36165  0.77160  0.60369  Biso   1.000  Hf
  Hf20     1.0000 0.86426  0.26884  0.10559  Biso   1.000  Hf
  Hf21     1.0000 0.86075  0.27102  0.60354  Biso   1.000  Hf
  Hf22     1.0000 0.86574  0.77442  0.10371  Biso   1.000  Hf
  Hf23     1.0000 0.86038  0.77124  0.60438  Biso   1.000  Hf
  Hf24     1.0000 0.36207  0.47948  0.35435  Biso   1.000  Hf
  Hf25     1.0000 0.35982  0.47834  0.85474  Biso   1.000  Hf
  Hf26     1.0000 0.35865  0.97869  0.35165  Biso   1.000  Hf
  Hf27     1.0000 0.35820  0.97860  0.85716  Biso   1.000  Hf
  Hf28     1.0000 0.86084  0.47906  0.35377  Biso   1.000  Hf
  Hf29     1.0000 0.86162  0.47806  0.85566  Biso   1.000  Hf
  Hf30     1.0000 0.86500  0.98064  0.35100  Biso   1.000  Hf
  Hf31     1.0000 0.86009  0.97889  0.85377  Biso   1.000  Hf
  O1       1.0000 0.03868  0.16109  0.08362  Biso   1.000  O
  O2       1.0000 0.03401  0.16483  0.57431  Biso   1.000  O
  O3       1.0000 0.03669  0.66950  0.08136  Biso   1.000  O
  O4       1.0000 0.03586  0.66966  0.58016  Biso   1.000  O
  O5       1.0000 0.53614  0.17104  0.08203  Biso   1.000  O
  O6       1.0000 0.53692  0.17107  0.58186  Biso   1.000  O
  O7       1.0000 0.53471  0.67121  0.08197  Biso   1.000  O
  O8       1.0000 0.53745  0.67142  0.58125  Biso   1.000  O
  O9       1.0000 0.04168  0.08146  0.31549  Biso   1.000  O
  O10      1.0000 0.03434  0.08190  0.82778  Biso   1.000  O
  O11      1.0000 0.03655  0.57991  0.33116  Biso   1.000  O
  O12      1.0000 0.03662  0.58014  0.83170  Biso   1.000  O
  O13      1.0000 0.53488  0.08048  0.33052  Biso   1.000  O
  O14      1.0000 0.53538  0.07828  0.83333  Biso   1.000  O
  O15      1.0000 0.53796  0.57922  0.33206  Biso   1.000  O
  O16      1.0000 0.53643  0.57805  0.83250  Biso   1.000  O
  O17      1.0000 0.46328  0.42049  0.16839  Biso   1.000  O
  O18      1.0000 0.46303  0.42122  0.66871  Biso   1.000  O
  O19      1.0000 0.46519  0.91913  0.16934  Biso   1.000  O
  O20      1.0000 0.46244  0.92079  0.66942  Biso   1.000  O
  O21      1.0000 0.96532  0.41922  0.16932  Biso   1.000  O
  O22      1.0000 0.96478  0.41754  0.67053  Biso   1.000  O
  O23      1.0000 0.97791  0.92498  0.16453  Biso   1.000  O
  O24      1.0000 0.96398  0.91912  0.66905  Biso   1.000  O
  O25      1.0000 0.46349  0.32986  0.41929  Biso   1.000  O
  O26      1.0000 0.46013  0.32577  0.91811  Biso   1.000  O
  O27      1.0000 0.46389  0.82983  0.41739  Biso   1.000  O
  O28      1.0000 0.46027  0.82841  0.91870  Biso   1.000  O
  O29      1.0000 0.96368  0.32906  0.41783  Biso   1.000  O
  O30      1.0000 0.96541  0.32847  0.92218  Biso   1.000  O
  O31      1.0000 0.96413  0.83163  0.41840  Biso   1.000  O
  O32      1.0000 0.96368  0.83027  0.91852  Biso   1.000  O
  O33      1.0000 0.27212  0.12402  0.23697  Biso   1.000  O
  O34      1.0000 0.27711  0.12878  0.74321  Biso   1.000  O
  O35      1.0000 0.27685  0.63161  0.24141  Biso   1.000  O
  O36      1.0000 0.27720  0.62940  0.74093  Biso   1.000  O
  O37      1.0000 0.77645  0.12881  0.24078  Biso   1.000  O
  O38      1.0000 0.77577  0.12907  0.74038  Biso   1.000  O
  O39      1.0000 0.77790  0.63079  0.24045  Biso   1.000  O
  O40      1.0000 0.77708  0.62875  0.74190  Biso   1.000  O
  O41      1.0000 0.27726  0.12164  0.48978  Biso   1.000  O
  O42      1.0000 0.26983  0.11521  0.00061  Biso   1.000  O
  O43      1.0000 0.27709  0.62120  0.49073  Biso   1.000  O
  O44      1.0000 0.27659  0.62169  0.99115  Biso   1.000  O
  O45      1.0000 0.77821  0.12023  0.48910  Biso   1.000  O
  O46      1.0000 0.77670  0.12105  0.99065  Biso   1.000  O
  O47      1.0000 0.77728  0.62095  0.49093  Biso   1.000  O
  O48      1.0000 0.77807  0.62206  0.99182  Biso   1.000  O
  O49      1.0000 0.22259  0.37870  0.01037  Biso   1.000  O
  O50      1.0000 0.22263  0.37892  0.50918  Biso   1.000  O
  O51      1.0000 0.21771  0.88496  0.01286  Biso   1.000  O
  O52      1.0000 0.22305  0.87932  0.50811  Biso   1.000  O
  O53      1.0000 0.72410  0.37894  0.00981  Biso   1.000  O
  O54      1.0000 0.72333  0.37919  0.50958  Biso   1.000  O
  O55      1.0000 0.72322  0.87949  0.00963  Biso   1.000  O
  O56      1.0000 0.72328  0.87955  0.50876  Biso   1.000  O
  O57      1.0000 0.22441  0.37041  0.25956  Biso   1.000  O
  O58      1.0000 0.22257  0.36973  0.76023  Biso   1.000  O
  O59      1.0000 0.21832  0.87563  0.25589  Biso   1.000  O
  O60      1.0000 0.22258  0.87094  0.75928  Biso   1.000  O
  O61      1.0000 0.72410  0.37033  0.25905  Biso   1.000  O
  O62      1.0000 0.72309  0.37082  0.75987  Biso   1.000  O
  O63      1.0000 0.73085  0.87303  0.25777  Biso   1.000  O
  O64      1.0000 0.72225  0.87040  0.75964  Biso   1.000  O
