data_image0
_cell_length_a       10.0596
_cell_length_b       5.16045
_cell_length_c       10.0596
_cell_angle_alpha    89.9156
_cell_angle_beta     88.8893
_cell_angle_gamma    90.0852

_symmetry_space_group_name_H-M    "P 1"
_symmetry_int_tables_number       1

loop_
  _symmetry_equiv_pos_as_xyz
  'x, y, z'

loop_
  _atom_site_label
  _atom_site_occupancy
  _atom_site_fract_x
  _atom_site_fract_y
  _atom_site_fract_z
  _atom_site_thermal_displace_type
  _atom_site_B_iso_or_equiv
  _atom_site_type_symbol
  Hf1      1.0000 0.12794  0.88411  0.12170  Biso   1.000  Hf
  Hf2      1.0000 0.13645  0.50634  0.38972  Biso   1.000  Hf
  Hf3      1.0000 0.37896  0.50728  0.13173  Biso   1.000  Hf
  Hf4      1.0000 0.37843  0.01742  0.38174  Biso   1.000  Hf
  Hf5      1.0000 0.98667  0.30186  0.98976  Biso   1.000  Hf
  Hf6      1.0000 0.00871  0.11514  0.24093  Biso   1.000  Hf
  Hf7      1.0000 0.01092  0.61177  0.23872  Biso   1.000  Hf
  Hf8      1.0000 0.99029  0.79546  0.98517  Biso   1.000  Hf
  Hf9      1.0000 0.25988  0.30187  0.26296  Biso   1.000  Hf
  Hf10     1.0000 0.23665  0.18859  0.01299  Biso   1.000  Hf
  Hf11     1.0000 0.26851  0.69088  0.98113  Biso   1.000  Hf
  Hf12     1.0000 0.26447  0.79546  0.25936  Biso   1.000  Hf
  Hf13     1.0000 0.12201  0.99982  0.62538  Biso   1.000  Hf
  Hf14     1.0000 0.11791  0.50729  0.87068  Biso   1.000  Hf
  Hf15     1.0000 0.37357  0.51180  0.63430  Biso   1.000  Hf
  Hf16     1.0000 0.36736  0.01145  0.88228  Biso   1.000  Hf
  Hf17     1.0000 0.99362  0.30189  0.49242  Biso   1.000  Hf
  Hf18     1.0000 0.99730  0.21539  0.74371  Biso   1.000  Hf
  Hf19     1.0000 0.99893  0.71363  0.73994  Biso   1.000  Hf
  Hf20     1.0000 0.00893  0.80460  0.48910  Biso   1.000  Hf
  Hf21     1.0000 0.25205  0.30073  0.75765  Biso   1.000  Hf
  Hf22     1.0000 0.24847  0.21967  0.50789  Biso   1.000  Hf
  Hf23     1.0000 0.25895  0.72196  0.50527  Biso   1.000  Hf
  Hf24     1.0000 0.24645  0.80832  0.74843  Biso   1.000  Hf
  Hf25     1.0000 0.62427  0.99982  0.12763  Biso   1.000  Hf
  Hf26     1.0000 0.62742  0.51103  0.37716  Biso   1.000  Hf
  Hf27     1.0000 0.85992  0.50633  0.11319  Biso   1.000  Hf
  Hf28     1.0000 0.87118  0.01485  0.37846  Biso   1.000  Hf
  Hf29     1.0000 0.49199  0.30074  0.99758  Biso   1.000  Hf
  Hf30     1.0000 0.50593  0.21538  0.25234  Biso   1.000  Hf
  Hf31     1.0000 0.50971  0.71361  0.25069  Biso   1.000  Hf
  Hf32     1.0000 0.50121  0.80833  0.00317  Biso   1.000  Hf
  Hf33     1.0000 0.75722  0.30188  0.25601  Biso   1.000  Hf
  Hf34     1.0000 0.74175  0.21966  0.00116  Biso   1.000  Hf
  Hf35     1.0000 0.74437  0.72195  0.99069  Biso   1.000  Hf
  Hf36     1.0000 0.76055  0.80459  0.24071  Biso   1.000  Hf
  Hf37     1.0000 0.62103  0.01754  0.62861  Biso   1.000  Hf
  Hf38     1.0000 0.61534  0.51182  0.87606  Biso   1.000  Hf
  Hf39     1.0000 0.87247  0.51103  0.62221  Biso   1.000  Hf
  Hf40     1.0000 0.86790  0.01741  0.87121  Biso   1.000  Hf
  Hf41     1.0000 0.49659  0.31688  0.50098  Biso   1.000  Hf
  Hf42     1.0000 0.49835  0.21984  0.75128  Biso   1.000  Hf
  Hf43     1.0000 0.49665  0.72160  0.75298  Biso   1.000  Hf
  Hf44     1.0000 0.50826  0.81487  0.49991  Biso   1.000  Hf
  Hf45     1.0000 0.74866  0.31687  0.75304  Biso   1.000  Hf
  Hf46     1.0000 0.74597  0.21986  0.50367  Biso   1.000  Hf
  Hf47     1.0000 0.75867  0.71633  0.49097  Biso   1.000  Hf
  Hf48     1.0000 0.74971  0.81486  0.74139  Biso   1.000  Hf
  Mn1      1.0000 0.11605  0.35400  0.13358  Biso   1.000  Mn
