data_image0
_cell_length_a       9.99607
_cell_length_b       5.0705
_cell_length_c       9.99603
_cell_angle_alpha    90
_cell_angle_beta     90
_cell_angle_gamma    90.0001

_symmetry_space_group_name_H-M    "P 1"
_symmetry_int_tables_number       1

loop_
  _symmetry_equiv_pos_as_xyz
  'x, y, z'

loop_
  _atom_site_label
  _atom_site_occupancy
  _atom_site_fract_x
  _atom_site_fract_y
  _atom_site_fract_z
  _atom_site_thermal_displace_type
  _atom_site_B_iso_or_equiv
  _atom_site_type_symbol
  Mo1      1.0000 0.12491  0.00011  0.12491  Biso   1.000  Mo
  Hf1      1.0000 0.12491  0.50011  0.37301  Biso   1.000  Hf
  Hf2      1.0000 0.37301  0.50011  0.12491  Biso   1.000  Hf
  Hf3      1.0000 0.37438  0.99997  0.37438  Biso   1.000  Hf
  Hf4      1.0000 0.99503  0.28650  0.99505  Biso   1.000  Hf
  Hf5      1.0000 0.00597  0.20884  0.24389  Biso   1.000  Hf
  Hf6      1.0000 0.99503  0.71371  0.25477  Biso   1.000  Hf
  Hf7      1.0000 0.00597  0.79137  0.00593  Biso   1.000  Hf
  Hf8      1.0000 0.25479  0.28650  0.25477  Biso   1.000  Hf
  Hf9      1.0000 0.24385  0.20884  0.00593  Biso   1.000  Hf
  Hf10     1.0000 0.25479  0.71371  0.99505  Biso   1.000  Hf
  Hf11     1.0000 0.24385  0.79137  0.24389  Biso   1.000  Hf
  Hf12     1.0000 0.12491  0.00011  0.62491  Biso   1.000  Hf
  Hf13     1.0000 0.12491  0.50011  0.87681  Biso   1.000  Hf
  Hf14     1.0000 0.37496  0.50011  0.62491  Biso   1.000  Hf
  Hf15     1.0000 0.37438  0.00025  0.87544  Biso   1.000  Hf
  Hf16     1.0000 0.99459  0.29269  0.49264  Biso   1.000  Hf
  Hf17     1.0000 0.00233  0.20913  0.74588  Biso   1.000  Hf
  Hf18     1.0000 0.99459  0.70752  0.75718  Biso   1.000  Hf
  Hf19     1.0000 0.00233  0.79109  0.50394  Biso   1.000  Hf
  Hf20     1.0000 0.25523  0.29269  0.75718  Biso   1.000  Hf
  Hf21     1.0000 0.24749  0.20912  0.50394  Biso   1.000  Hf
  Hf22     1.0000 0.25523  0.70753  0.49264  Biso   1.000  Hf
  Hf23     1.0000 0.24749  0.79109  0.74588  Biso   1.000  Hf
  Hf24     1.0000 0.62491  0.00011  0.12491  Biso   1.000  Hf
  Hf25     1.0000 0.62491  0.50011  0.37496  Biso   1.000  Hf
  Hf26     1.0000 0.87681  0.50011  0.12491  Biso   1.000  Hf
  Hf27     1.0000 0.87544  0.00025  0.37438  Biso   1.000  Hf
  Hf28     1.0000 0.49262  0.29269  0.99460  Biso   1.000  Hf
  Hf29     1.0000 0.50396  0.20913  0.24751  Biso   1.000  Hf
  Hf30     1.0000 0.49262  0.70752  0.25521  Biso   1.000  Hf
  Hf31     1.0000 0.50396  0.79109  0.00230  Biso   1.000  Hf
  Hf32     1.0000 0.75719  0.29269  0.25521  Biso   1.000  Hf
  Hf33     1.0000 0.74585  0.20912  0.00230  Biso   1.000  Hf
  Hf34     1.0000 0.75719  0.70752  0.99460  Biso   1.000  Hf
  Hf35     1.0000 0.74585  0.79109  0.24751  Biso   1.000  Hf
  Hf36     1.0000 0.62491  0.00011  0.62491  Biso   1.000  Hf
  Hf37     1.0000 0.62491  0.50011  0.87486  Biso   1.000  Hf
  Hf38     1.0000 0.87486  0.50011  0.62491  Biso   1.000  Hf
  Hf39     1.0000 0.87544  0.99997  0.87544  Biso   1.000  Hf
  Hf40     1.0000 0.49518  0.29147  0.49519  Biso   1.000  Hf
  Hf41     1.0000 0.50264  0.20928  0.74720  Biso   1.000  Hf
  Hf42     1.0000 0.49518  0.70874  0.75462  Biso   1.000  Hf
  Hf43     1.0000 0.50264  0.79093  0.50262  Biso   1.000  Hf
  Hf44     1.0000 0.75464  0.29148  0.75462  Biso   1.000  Hf
  Hf45     1.0000 0.74717  0.20928  0.50262  Biso   1.000  Hf
  Hf46     1.0000 0.75464  0.70874  0.49520  Biso   1.000  Hf
  Hf47     1.0000 0.74717  0.79093  0.74720  Biso   1.000  Hf
