data_image0
_cell_length_a       9.99485
_cell_length_b       10.156
_cell_length_c       4.99851
_cell_angle_alpha    89.9999
_cell_angle_beta     89.9999
_cell_angle_gamma    90

_symmetry_space_group_name_H-M    "P 1"
_symmetry_int_tables_number       1

loop_
  _symmetry_equiv_pos_as_xyz
  'x, y, z'

loop_
  _atom_site_label
  _atom_site_occupancy
  _atom_site_fract_x
  _atom_site_fract_y
  _atom_site_fract_z
  _atom_site_thermal_displace_type
  _atom_site_B_iso_or_equiv
  _atom_site_type_symbol
  Mo1      1.0000 0.12491  0.00005  0.24982  Biso   1.000  Mo
  Hf1      1.0000 0.12491  0.24928  0.74982  Biso   1.000  Hf
  Hf2      1.0000 0.37372  0.24917  0.25208  Biso   1.000  Hf
  Hf3      1.0000 0.37413  0.00005  0.74982  Biso   1.000  Hf
  Hf4      1.0000 0.99467  0.14445  0.98520  Biso   1.000  Hf
  Hf5      1.0000 0.00512  0.10173  0.48637  Biso   1.000  Hf
  Hf6      1.0000 0.99771  0.35251  0.50435  Biso   1.000  Hf
  Hf7      1.0000 0.00118  0.39629  0.00267  Biso   1.000  Hf
  Hf8      1.0000 0.25515  0.14445  0.51443  Biso   1.000  Hf
  Hf9      1.0000 0.24470  0.10173  0.01326  Biso   1.000  Hf
  Hf10     1.0000 0.25210  0.35251  0.99528  Biso   1.000  Hf
  Hf11     1.0000 0.24864  0.39629  0.49697  Biso   1.000  Hf
  Hf12     1.0000 0.12491  0.50005  0.24982  Biso   1.000  Hf
  Hf13     1.0000 0.12491  0.75083  0.74982  Biso   1.000  Hf
  Hf14     1.0000 0.37372  0.75094  0.24755  Biso   1.000  Hf
  Hf15     1.0000 0.37569  0.50005  0.74982  Biso   1.000  Hf
  Hf16     1.0000 0.99771  0.64760  0.99529  Biso   1.000  Hf
  Hf17     1.0000 0.00117  0.60382  0.49697  Biso   1.000  Hf
  Hf18     1.0000 0.99467  0.85566  0.51443  Biso   1.000  Hf
  Hf19     1.0000 0.00512  0.89837  0.01327  Biso   1.000  Hf
  Hf20     1.0000 0.25210  0.64760  0.50435  Biso   1.000  Hf
  Hf21     1.0000 0.24864  0.60382  0.00267  Biso   1.000  Hf
  Hf22     1.0000 0.25515  0.85566  0.98520  Biso   1.000  Hf
  Hf23     1.0000 0.24470  0.89837  0.48637  Biso   1.000  Hf
  Hf24     1.0000 0.62491  0.00005  0.24982  Biso   1.000  Hf
  Hf25     1.0000 0.62491  0.24985  0.74982  Biso   1.000  Hf
  Hf26     1.0000 0.87610  0.24917  0.24755  Biso   1.000  Hf
  Hf27     1.0000 0.87569  0.00005  0.74982  Biso   1.000  Hf
  Hf28     1.0000 0.49269  0.14667  0.98870  Biso   1.000  Hf
  Hf29     1.0000 0.50374  0.10413  0.49462  Biso   1.000  Hf
  Hf30     1.0000 0.49751  0.35343  0.50397  Biso   1.000  Hf
  Hf31     1.0000 0.50145  0.39637  0.00209  Biso   1.000  Hf
  Hf32     1.0000 0.75713  0.14667  0.51093  Biso   1.000  Hf
  Hf33     1.0000 0.74607  0.10413  0.00501  Biso   1.000  Hf
  Hf34     1.0000 0.75230  0.35343  0.99567  Biso   1.000  Hf
  Hf35     1.0000 0.74836  0.39637  0.49755  Biso   1.000  Hf
  Hf36     1.0000 0.62491  0.50005  0.24982  Biso   1.000  Hf
  Hf37     1.0000 0.62491  0.75026  0.74982  Biso   1.000  Hf
  Hf38     1.0000 0.87610  0.75094  0.25208  Biso   1.000  Hf
  Hf39     1.0000 0.87413  0.50005  0.74982  Biso   1.000  Hf
  Hf40     1.0000 0.49751  0.64667  0.99566  Biso   1.000  Hf
  Hf41     1.0000 0.50146  0.60374  0.49754  Biso   1.000  Hf
  Hf42     1.0000 0.49269  0.85344  0.51093  Biso   1.000  Hf
  Hf43     1.0000 0.50374  0.89598  0.00501  Biso   1.000  Hf
  Hf44     1.0000 0.75230  0.64667  0.50397  Biso   1.000  Hf
  Hf45     1.0000 0.74836  0.60374  0.00209  Biso   1.000  Hf
  Hf46     1.0000 0.75713  0.85344  0.98870  Biso   1.000  Hf
  Hf47     1.0000 0.74607  0.89598  0.49462  Biso   1.000  Hf
