data_image0
_cell_length_a       10.0634
_cell_length_b       10.192
_cell_length_c       5.22642
_cell_angle_alpha    89.5685
_cell_angle_beta     90.1205
_cell_angle_gamma    89.6342

_symmetry_space_group_name_H-M    "P 1"
_symmetry_int_tables_number       1

loop_
  _symmetry_equiv_pos_as_xyz
  'x, y, z'

loop_
  _atom_site_label
  _atom_site_occupancy
  _atom_site_fract_x
  _atom_site_fract_y
  _atom_site_fract_z
  _atom_site_thermal_displace_type
  _atom_site_B_iso_or_equiv
  _atom_site_type_symbol
  N1       1.0000 0.04443  0.05136  0.35293  Biso   1.000  N
  Hf1      1.0000 0.15745  0.22862  0.83981  Biso   1.000  Hf
  Hf2      1.0000 0.35732  0.26140  0.34415  Biso   1.000  Hf
  Hf3      1.0000 0.36249  0.47827  0.84670  Biso   1.000  Hf
  Hf4      1.0000 0.63478  0.01960  0.15795  Biso   1.000  Hf
  Hf5      1.0000 0.63574  0.22965  0.65942  Biso   1.000  Hf
  Hf6      1.0000 0.85497  0.27301  0.16138  Biso   1.000  Hf
  Hf7      1.0000 0.86906  0.47419  0.66123  Biso   1.000  Hf
  O1       1.0000 0.02979  0.13799  0.16438  Biso   1.000  O
  O2       1.0000 0.02463  0.10186  0.58818  Biso   1.000  O
  O3       1.0000 0.46623  0.41350  0.17173  Biso   1.000  O
  O4       1.0000 0.46970  0.33633  0.66935  Biso   1.000  O
  O5       1.0000 0.28188  0.12869  0.60159  Biso   1.000  O
  O6       1.0000 0.29053  0.13634  0.07214  Biso   1.000  O
  O7       1.0000 0.22525  0.37384  0.59370  Biso   1.000  O
  O8       1.0000 0.22056  0.37488  0.09127  Biso   1.000  O
  O9       1.0000 0.53654  0.16641  0.33384  Biso   1.000  O
  O10      1.0000 0.53979  0.08223  0.83157  Biso   1.000  O
  O11      1.0000 0.97200  0.40613  0.34221  Biso   1.000  O
  O12      1.0000 0.97121  0.32299  0.85000  Biso   1.000  O
  O13      1.0000 0.78099  0.12149  0.91562  Biso   1.000  O
  O14      1.0000 0.77713  0.12467  0.41298  Biso   1.000  O
  O15      1.0000 0.72684  0.37319  0.91397  Biso   1.000  O
  O16      1.0000 0.72608  0.37519  0.41212  Biso   1.000  O
  Hf8      1.0000 0.14162  0.52199  0.34710  Biso   1.000  Hf
  Hf9      1.0000 0.14761  0.73517  0.84062  Biso   1.000  Hf
  Hf10     1.0000 0.35530  0.77868  0.34302  Biso   1.000  Hf
  Hf11     1.0000 0.35702  0.97835  0.83919  Biso   1.000  Hf
  Hf12     1.0000 0.63368  0.51968  0.16470  Biso   1.000  Hf
  Hf13     1.0000 0.63478  0.72634  0.65233  Biso   1.000  Hf
  Hf14     1.0000 0.86035  0.76036  0.14531  Biso   1.000  Hf
  Hf15     1.0000 0.84934  0.97695  0.67192  Biso   1.000  Hf
  O17      1.0000 0.03437  0.67200  0.18126  Biso   1.000  O
  O18      1.0000 0.03462  0.58203  0.67540  Biso   1.000  O
  O19      1.0000 0.47256  0.91337  0.16399  Biso   1.000  O
  O20      1.0000 0.47571  0.84222  0.65467  Biso   1.000  O
  O21      1.0000 0.27883  0.62080  0.58974  Biso   1.000  O
  O22      1.0000 0.27522  0.62150  0.09371  Biso   1.000  O
  O23      1.0000 0.22936  0.86773  0.59546  Biso   1.000  O
  O24      1.0000 0.23627  0.86768  0.07348  Biso   1.000  O
  O25      1.0000 0.53342  0.66559  0.33335  Biso   1.000  O
  O26      1.0000 0.53461  0.58392  0.83618  Biso   1.000  O
  O27      1.0000 0.97194  0.94564  0.32989  Biso   1.000  O
  O28      1.0000 0.96895  0.84165  0.83347  Biso   1.000  O
  O29      1.0000 0.77896  0.62245  0.91606  Biso   1.000  O
  O30      1.0000 0.77825  0.62118  0.41374  Biso   1.000  O
  O31      1.0000 0.72202  0.87080  0.90937  Biso   1.000  O
  O32      1.0000 0.73981  0.87208  0.40781  Biso   1.000  O
