data_image0
_cell_length_a       10.0413
_cell_length_b       10.2205
_cell_length_c       10.0611
_cell_angle_alpha    88.7622
_cell_angle_beta     90.6095
_cell_angle_gamma    91.7671

_symmetry_space_group_name_H-M    "P 1"
_symmetry_int_tables_number       1

loop_
  _symmetry_equiv_pos_as_xyz
  'x, y, z'

loop_
  _atom_site_label
  _atom_site_occupancy
  _atom_site_fract_x
  _atom_site_fract_y
  _atom_site_fract_z
  _atom_site_thermal_displace_type
  _atom_site_B_iso_or_equiv
  _atom_site_type_symbol
  N1       1.0000 0.10362  0.98236  0.18207  Biso   1.000  N 
  Hf1      1.0000 0.13634  0.23717  0.35826  Biso   1.000  Hf
  Hf2      1.0000 0.36032  0.26473  0.10447  Biso   1.000  Hf
  Hf3      1.0000 0.36862  0.99987  0.37432  Biso   1.000  Hf
  Hf4      1.0000 0.98749  0.17198  0.97149  Biso   1.000  Hf
  Hf5      1.0000 0.03750  0.06341  0.25780  Biso   1.000  Hf
  Hf6      1.0000 0.02746  0.32898  0.22250  Biso   1.000  Hf
  Hf7      1.0000 0.97068  0.43252  0.00901  Biso   1.000  Hf
  Hf8      1.0000 0.29104  0.15645  0.26267  Biso   1.000  Hf
  Hf9      1.0000 0.25242  0.12945  0.98833  Biso   1.000  Hf
  Hf10     1.0000 0.22562  0.36990  0.98369  Biso   1.000  Hf
  Hf11     1.0000 0.27025  0.40606  0.22570  Biso   1.000  Hf
  Hf12     1.0000 0.13879  0.98574  0.63996  Biso   1.000  Hf
  Hf13     1.0000 0.13594  0.24257  0.85355  Biso   1.000  Hf
  Hf14     1.0000 0.36231  0.25206  0.60192  Biso   1.000  Hf
  Hf15     1.0000 0.37199  0.00868  0.89661  Biso   1.000  Hf
  Hf16     1.0000 0.97768  0.15795  0.46109  Biso   1.000  Hf
  Hf17     1.0000 0.01347  0.12605  0.71879  Biso   1.000  Hf
  Hf18     1.0000 0.98921  0.37344  0.75522  Biso   1.000  Hf
  Hf19     1.0000 0.99551  0.40241  0.50179  Biso   1.000  Hf
  Hf20     1.0000 0.26693  0.13288  0.74645  Biso   1.000  Hf
  Hf21     1.0000 0.23553  0.10135  0.50004  Biso   1.000  Hf
  Hf22     1.0000 0.25103  0.35344  0.47356  Biso   1.000  Hf
  Hf23     1.0000 0.24308  0.38748  0.72830  Biso   1.000  Hf
  Hf24     1.0000 0.12007  0.50539  0.12215  Biso   1.000  Hf
  Hf25     1.0000 0.12362  0.73519  0.37556  Biso   1.000  Hf
  Hf26     1.0000 0.39173  0.73345  0.10572  Biso   1.000  Hf
  Hf27     1.0000 0.36221  0.50816  0.37442  Biso   1.000  Hf
  Hf28     1.0000 0.02760  0.68098  0.03074  Biso   1.000  Hf
  Hf29     1.0000 0.00165  0.58765  0.26271  Biso   1.000  Hf
  Hf30     1.0000 0.95667  0.82501  0.31476  Biso   1.000  Hf
  Hf31     1.0000 0.03219  0.92301  0.09650  Biso   1.000  Hf
  Hf32     1.0000 0.25016  0.65479  0.24638  Biso   1.000  Hf
  Hf33     1.0000 0.26152  0.60596  0.99858  Biso   1.000  Hf
  Hf34     1.0000 0.27579  0.85677  0.99835  Biso   1.000  Hf
  Hf35     1.0000 0.19317  0.91284  0.25263  Biso   1.000  Hf
  Hf36     1.0000 0.10072  0.51505  0.63913  Biso   1.000  Hf
  Hf37     1.0000 0.14277  0.75454  0.88518  Biso   1.000  Hf
  Hf38     1.0000 0.37908  0.74434  0.62416  Biso   1.000  Hf
  Hf39     1.0000 0.36222  0.49712  0.86526  Biso   1.000  Hf
  Hf40     1.0000 0.99296  0.64979  0.51348  Biso   1.000  Hf
  Hf41     1.0000 0.98413  0.63093  0.76218  Biso   1.000  Hf
  Hf42     1.0000 0.03219  0.89982  0.81677  Biso   1.000  Hf
  Hf43     1.0000 0.97323  0.90868  0.55320  Biso   1.000  Hf
  Hf44     1.0000 0.23472  0.64187  0.75052  Biso   1.000  Hf
  Hf45     1.0000 0.23783  0.59839  0.49974  Biso   1.000  Hf
  Hf46     1.0000 0.23707  0.85090  0.49849  Biso   1.000  Hf
  Hf47     1.0000 0.27802  0.88614  0.74678  Biso   1.000  Hf
  Hf48     1.0000 0.63550  0.01424  0.12406  Biso   1.000  Hf
  Hf49     1.0000 0.62445  0.23682  0.36876  Biso   1.000  Hf
  Hf50     1.0000 0.87140  0.26766  0.10586  Biso   1.000  Hf
  Hf51     1.0000 0.86739  0.99333  0.38824  Biso   1.000  Hf
  Hf52     1.0000 0.49963  0.14236  0.01340  Biso   1.000  Hf
  Hf53     1.0000 0.53199  0.07677  0.27601  Biso   1.000  Hf
  Hf54     1.0000 0.52703  0.33154  0.22073  Biso   1.000  Hf
  Hf55     1.0000 0.48561  0.39383  0.98404  Biso   1.000  Hf
  Hf56     1.0000 0.77574  0.14580  0.25135  Biso   1.000  Hf
  Hf57     1.0000 0.74950  0.11836  0.99728  Biso   1.000  Hf
  Hf58     1.0000 0.73250  0.36336  0.98781  Biso   1.000  Hf
  Hf59     1.0000 0.77136  0.40096  0.23448  Biso   1.000  Hf
  Hf60     1.0000 0.61944  0.98681  0.62872  Biso   1.000  Hf
  Hf61     1.0000 0.62159  0.24010  0.86260  Biso   1.000  Hf
  Hf62     1.0000 0.88048  0.25116  0.60783  Biso   1.000  Hf
  Hf63     1.0000 0.88353  0.02588  0.86834  Biso   1.000  Hf
  Hf64     1.0000 0.49196  0.14000  0.50558  Biso   1.000  Hf
  Hf65     1.0000 0.52298  0.07564  0.77407  Biso   1.000  Hf
  Hf66     1.0000 0.49580  0.33111  0.73258  Biso   1.000  Hf
  Hf67     1.0000 0.49691  0.39083  0.47761  Biso   1.000  Hf
  Hf68     1.0000 0.76509  0.14842  0.75265  Biso   1.000  Hf
  Hf69     1.0000 0.74211  0.10087  0.50656  Biso   1.000  Hf
  Hf70     1.0000 0.74579  0.35407  0.48876  Biso   1.000  Hf
  Hf71     1.0000 0.73775  0.39019  0.73911  Biso   1.000  Hf
  Hf72     1.0000 0.62527  0.49093  0.11751  Biso   1.000  Hf
  Hf73     1.0000 0.61097  0.75214  0.36137  Biso   1.000  Hf
  Hf74     1.0000 0.87875  0.75157  0.14237  Biso   1.000  Hf
  Hf75     1.0000 0.86075  0.50382  0.38453  Biso   1.000  Hf
  Hf76     1.0000 0.51209  0.63808  0.97638  Biso   1.000  Hf
  Hf77     1.0000 0.49721  0.59409  0.23216  Biso   1.000  Hf
  Hf78     1.0000 0.45579  0.84230  0.26312  Biso   1.000  Hf
  Hf79     1.0000 0.52708  0.88750  0.00514  Biso   1.000  Hf
  Hf80     1.0000 0.74243  0.64218  0.25745  Biso   1.000  Hf
  Hf81     1.0000 0.76418  0.61853  0.00702  Biso   1.000  Hf
  Hf82     1.0000 0.79511  0.87199  0.99552  Biso   1.000  Hf
  Hf83     1.0000 0.73240  0.89031  0.24545  Biso   1.000  Hf
  Hf84     1.0000 0.60958  0.48905  0.61750  Biso   1.000  Hf
  Hf85     1.0000 0.65361  0.76452  0.88814  Biso   1.000  Hf
  Hf86     1.0000 0.85426  0.74704  0.62122  Biso   1.000  Hf
  Hf87     1.0000 0.85358  0.50068  0.86258  Biso   1.000  Hf
  Hf88     1.0000 0.48948  0.64415  0.48216  Biso   1.000  Hf
  Hf89     1.0000 0.46628  0.57657  0.71443  Biso   1.000  Hf
  Hf90     1.0000 0.52776  0.82106  0.73956  Biso   1.000  Hf
  Hf91     1.0000 0.48591  0.89403  0.50722  Biso   1.000  Hf
  Hf92     1.0000 0.72822  0.63776  0.75271  Biso   1.000  Hf
  Hf93     1.0000 0.74411  0.60594  0.50793  Biso   1.000  Hf
  Hf94     1.0000 0.73286  0.85174  0.49438  Biso   1.000  Hf
  Hf95     1.0000 0.76945  0.89454  0.74545  Biso   1.000  Hf
