data_image0
_cell_length_a       4.97951
_cell_length_b       10.4189
_cell_length_c       10.0367
_cell_angle_alpha    89.7029
_cell_angle_beta     89.354
_cell_angle_gamma    90.7238

_symmetry_space_group_name_H-M    "P 1"
_symmetry_int_tables_number       1

loop_
  _symmetry_equiv_pos_as_xyz
  'x, y, z'

loop_
  _atom_site_label
  _atom_site_occupancy
  _atom_site_fract_x
  _atom_site_fract_y
  _atom_site_fract_z
  _atom_site_thermal_displace_type
  _atom_site_B_iso_or_equiv
  _atom_site_type_symbol
  Hf1      1.0000 0.29184  0.00961  0.11805  Biso   1.000  Hf
  Hf2      1.0000 0.27662  0.23557  0.39231  Biso   1.000  Hf
  Hf3      1.0000 0.67359  0.27034  0.12132  Biso   1.000  Hf
  Hf4      1.0000 0.73518  0.48338  0.37604  Biso   1.000  Hf
  Hf5      1.0000 0.05398  0.19989  0.20033  Biso   1.000  Hf
  Hf6      1.0000 0.07712  0.06714  0.44573  Biso   1.000  Hf
  Hf7      1.0000 0.91014  0.43408  0.19039  Biso   1.000  Hf
  Hf8      1.0000 0.92858  0.31673  0.44686  Biso   1.000  Hf
  Hf9      1.0000 0.53337  0.11827  0.25862  Biso   1.000  Hf
  Hf10     1.0000 0.55051  0.13253  0.50633  Biso   1.000  Hf
  Hf11     1.0000 0.46409  0.38209  0.50565  Biso   1.000  Hf
  Hf12     1.0000 0.43752  0.37400  0.25912  Biso   1.000  Hf
  Hf13     1.0000 0.27590  0.01740  0.62976  Biso   1.000  Hf
  Hf14     1.0000 0.25309  0.23243  0.88200  Biso   1.000  Hf
  Hf15     1.0000 0.73196  0.26814  0.63464  Biso   1.000  Hf
  Hf16     1.0000 0.73290  0.48744  0.87397  Biso   1.000  Hf
  Hf17     1.0000 0.07299  0.18382  0.69359  Biso   1.000  Hf
  Hf18     1.0000 0.10113  0.05133  0.93110  Biso   1.000  Hf
  Hf19     1.0000 0.92145  0.43835  0.69091  Biso   1.000  Hf
  Hf20     1.0000 0.89949  0.31498  0.92857  Biso   1.000  Hf
  Hf21     1.0000 0.54027  0.11886  0.75306  Biso   1.000  Hf
  Hf22     1.0000 0.58823  0.11985  0.99619  Biso   1.000  Hf
  Hf23     1.0000 0.45627  0.39370  0.99930  Biso   1.000  Hf
  Hf24     1.0000 0.44809  0.36984  0.75333  Biso   1.000  Hf
  Hf25     1.0000 0.25955  0.52026  0.12992  Biso   1.000  Hf
  Hf26     1.0000 0.27433  0.73443  0.37747  Biso   1.000  Hf
  Hf27     1.0000 0.73809  0.76600  0.12608  Biso   1.000  Hf
  Hf28     1.0000 0.73786  0.98476  0.37735  Biso   1.000  Hf
  Hf29     1.0000 0.07671  0.68772  0.19594  Biso   1.000  Hf
  Hf30     1.0000 0.07683  0.56586  0.44298  Biso   1.000  Hf
  Hf31     1.0000 0.93791  0.94194  0.19241  Biso   1.000  Hf
  Hf32     1.0000 0.92947  0.81561  0.44115  Biso   1.000  Hf
  Hf33     1.0000 0.54315  0.61944  0.25126  Biso   1.000  Hf
  Hf34     1.0000 0.54371  0.63223  0.49998  Biso   1.000  Hf
  Hf35     1.0000 0.46057  0.88313  0.50027  Biso   1.000  Hf
  Hf36     1.0000 0.47123  0.86786  0.24947  Biso   1.000  Hf
  Hf37     1.0000 0.26969  0.51692  0.62735  Biso   1.000  Hf
  Hf38     1.0000 0.27125  0.73224  0.87633  Biso   1.000  Hf
  Hf39     1.0000 0.73589  0.76590  0.62418  Biso   1.000  Hf
  Hf40     1.0000 0.74262  0.98085  0.87123  Biso   1.000  Hf
  Hf41     1.0000 0.07230  0.68418  0.69480  Biso   1.000  Hf
  Hf42     1.0000 0.07087  0.56663  0.94752  Biso   1.000  Hf
  Hf43     1.0000 0.92885  0.93307  0.68830  Biso   1.000  Hf
  Hf44     1.0000 0.93317  0.81403  0.94463  Biso   1.000  Hf
  Hf45     1.0000 0.53921  0.61922  0.74966  Biso   1.000  Hf
  Hf46     1.0000 0.54017  0.63497  0.00161  Biso   1.000  Hf
  Hf47     1.0000 0.46848  0.87746  0.99950  Biso   1.000  Hf
  Hf48     1.0000 0.46294  0.86711  0.74948  Biso   1.000  Hf
  N1       1.0000 0.23141  0.21954  0.10069  Biso   1.000  N 
