data_image0
_cell_length_a       10.0129
_cell_length_b       10.1675
_cell_length_c       10.0129
_cell_angle_alpha    89.9998
_cell_angle_beta     89.9996
_cell_angle_gamma    89.9969

_symmetry_space_group_name_H-M    "P 1"
_symmetry_int_tables_number       1

loop_
  _symmetry_equiv_pos_as_xyz
  'x, y, z'

loop_
  _atom_site_label
  _atom_site_occupancy
  _atom_site_fract_x
  _atom_site_fract_y
  _atom_site_fract_z
  _atom_site_thermal_displace_type
  _atom_site_B_iso_or_equiv
  _atom_site_type_symbol
  Na1      1.0000 0.12504  0.99997  0.12492  Biso   1.000  Na
  Hf1      1.0000 0.12505  0.99997  0.62491  Biso   1.000  Hf
  Hf2      1.0000 0.12505  0.49998  0.12492  Biso   1.000  Hf
  Hf3      1.0000 0.12505  0.49997  0.62492  Biso   1.000  Hf
  Hf4      1.0000 0.62505  0.99997  0.12492  Biso   1.000  Hf
  Hf5      1.0000 0.62505  0.99997  0.62492  Biso   1.000  Hf
  Hf6      1.0000 0.62505  0.49997  0.12492  Biso   1.000  Hf
  Hf7      1.0000 0.62505  0.49997  0.62492  Biso   1.000  Hf
  Hf8      1.0000 0.12496  0.24865  0.37196  Biso   1.000  Hf
  Hf9      1.0000 0.12514  0.24864  0.87791  Biso   1.000  Hf
  Hf10     1.0000 0.12513  0.75130  0.37195  Biso   1.000  Hf
  Hf11     1.0000 0.12495  0.75130  0.87790  Biso   1.000  Hf
  Hf12     1.0000 0.62528  0.24880  0.37454  Biso   1.000  Hf
  Hf13     1.0000 0.62482  0.24880  0.87532  Biso   1.000  Hf
  Hf14     1.0000 0.62482  0.75114  0.37453  Biso   1.000  Hf
  Hf15     1.0000 0.62527  0.75114  0.87532  Biso   1.000  Hf
  Hf16     1.0000 0.37208  0.24865  0.12484  Biso   1.000  Hf
  Hf17     1.0000 0.37466  0.24880  0.62516  Biso   1.000  Hf
  Hf18     1.0000 0.37207  0.75130  0.12501  Biso   1.000  Hf
  Hf19     1.0000 0.37465  0.75114  0.62470  Biso   1.000  Hf
  Hf20     1.0000 0.87803  0.24865  0.12502  Biso   1.000  Hf
  Hf21     1.0000 0.87544  0.24880  0.62470  Biso   1.000  Hf
  Hf22     1.0000 0.87802  0.75130  0.12483  Biso   1.000  Hf
  Hf23     1.0000 0.87544  0.75114  0.62516  Biso   1.000  Hf
  Hf24     1.0000 0.37103  0.99855  0.37090  Biso   1.000  Hf
  Hf25     1.0000 0.37103  0.00138  0.87893  Biso   1.000  Hf
  Hf26     1.0000 0.37521  0.49886  0.37507  Biso   1.000  Hf
  Hf27     1.0000 0.37519  0.50109  0.87477  Biso   1.000  Hf
  Hf28     1.0000 0.87906  0.00139  0.37090  Biso   1.000  Hf
  Hf29     1.0000 0.87906  0.99856  0.87893  Biso   1.000  Hf
  Hf30     1.0000 0.87489  0.50108  0.37507  Biso   1.000  Hf
  Hf31     1.0000 0.87490  0.49885  0.87477  Biso   1.000  Hf
  Hf32     1.0000 0.99361  0.14410  0.99349  Biso   1.000  Hf
  Hf33     1.0000 0.00572  0.14430  0.50534  Biso   1.000  Hf
  Hf34     1.0000 0.00446  0.63642  0.00434  Biso   1.000  Hf
  Hf35     1.0000 0.00183  0.64425  0.50326  Biso   1.000  Hf
  Hf36     1.0000 0.50546  0.14430  0.00560  Biso   1.000  Hf
  Hf37     1.0000 0.50503  0.14657  0.50490  Biso   1.000  Hf
  Hf38     1.0000 0.50338  0.64425  0.00171  Biso   1.000  Hf
  Hf39     1.0000 0.50142  0.64536  0.50130  Biso   1.000  Hf
  Hf40     1.0000 0.99159  0.12306  0.25839  Biso   1.000  Hf
  Hf41     1.0000 0.99669  0.10500  0.74984  Biso   1.000  Hf
  Hf42     1.0000 0.99782  0.60956  0.25215  Biso   1.000  Hf
  Hf43     1.0000 0.99903  0.60550  0.75261  Biso   1.000  Hf
  Hf44     1.0000 0.50014  0.10499  0.25330  Biso   1.000  Hf
  Hf45     1.0000 0.49706  0.10391  0.75293  Biso   1.000  Hf
  Hf46     1.0000 0.49736  0.60550  0.25093  Biso   1.000  Hf
  Hf47     1.0000 0.49925  0.60448  0.75071  Biso   1.000  Hf
  Hf48     1.0000 0.00447  0.36352  0.24551  Biso   1.000  Hf
  Hf49     1.0000 0.00184  0.35569  0.74659  Biso   1.000  Hf
  Hf50     1.0000 0.99360  0.85584  0.25636  Biso   1.000  Hf
  Hf51     1.0000 0.00572  0.85564  0.74451  Biso   1.000  Hf
  Hf52     1.0000 0.50339  0.35569  0.24813  Biso   1.000  Hf
  Hf53     1.0000 0.50143  0.35458  0.74854  Biso   1.000  Hf
  Hf54     1.0000 0.50545  0.85564  0.24425  Biso   1.000  Hf
  Hf55     1.0000 0.50502  0.85338  0.74495  Biso   1.000  Hf
  Hf56     1.0000 0.99783  0.39038  0.99771  Biso   1.000  Hf
  Hf57     1.0000 0.99904  0.39445  0.49724  Biso   1.000  Hf
  Hf58     1.0000 0.99158  0.87688  0.99146  Biso   1.000  Hf
  Hf59     1.0000 0.99668  0.89495  0.50001  Biso   1.000  Hf
  Hf60     1.0000 0.49737  0.39445  0.99891  Biso   1.000  Hf
  Hf61     1.0000 0.49926  0.39546  0.49914  Biso   1.000  Hf
  Hf62     1.0000 0.50013  0.89495  0.99656  Biso   1.000  Hf
  Hf63     1.0000 0.49705  0.89604  0.49693  Biso   1.000  Hf
  Hf64     1.0000 0.25649  0.14410  0.25636  Biso   1.000  Hf
  Hf65     1.0000 0.24438  0.14430  0.74451  Biso   1.000  Hf
  Hf66     1.0000 0.24563  0.63642  0.24551  Biso   1.000  Hf
  Hf67     1.0000 0.24825  0.64425  0.74658  Biso   1.000  Hf
  Hf68     1.0000 0.74464  0.14430  0.24426  Biso   1.000  Hf
  Hf69     1.0000 0.74509  0.14656  0.74496  Biso   1.000  Hf
  Hf70     1.0000 0.74671  0.64425  0.24813  Biso   1.000  Hf
  Hf71     1.0000 0.74866  0.64536  0.74853  Biso   1.000  Hf
  Hf72     1.0000 0.25851  0.12306  0.99147  Biso   1.000  Hf
  Hf73     1.0000 0.25342  0.10500  0.50001  Biso   1.000  Hf
  Hf74     1.0000 0.25227  0.60956  0.99770  Biso   1.000  Hf
  Hf75     1.0000 0.25105  0.60550  0.49724  Biso   1.000  Hf
  Hf76     1.0000 0.74996  0.10499  0.99657  Biso   1.000  Hf
  Hf77     1.0000 0.75305  0.10391  0.49694  Biso   1.000  Hf
  Hf78     1.0000 0.75273  0.60549  0.99891  Biso   1.000  Hf
  Hf79     1.0000 0.75083  0.60448  0.49913  Biso   1.000  Hf
  Hf80     1.0000 0.24564  0.36352  0.00434  Biso   1.000  Hf
  Hf81     1.0000 0.24826  0.35569  0.50327  Biso   1.000  Hf
  Hf82     1.0000 0.25648  0.85584  0.99348  Biso   1.000  Hf
  Hf83     1.0000 0.24438  0.85564  0.50533  Biso   1.000  Hf
  Hf84     1.0000 0.74671  0.35569  0.00171  Biso   1.000  Hf
  Hf85     1.0000 0.74867  0.35458  0.50131  Biso   1.000  Hf
  Hf86     1.0000 0.74463  0.85564  0.00560  Biso   1.000  Hf
  Hf87     1.0000 0.74508  0.85337  0.50489  Biso   1.000  Hf
  Hf88     1.0000 0.25227  0.39038  0.25215  Biso   1.000  Hf
  Hf89     1.0000 0.25106  0.39445  0.75261  Biso   1.000  Hf
  Hf90     1.0000 0.25850  0.87689  0.25838  Biso   1.000  Hf
  Hf91     1.0000 0.25341  0.89495  0.74983  Biso   1.000  Hf
  Hf92     1.0000 0.75274  0.39445  0.25094  Biso   1.000  Hf
  Hf93     1.0000 0.75084  0.39546  0.75071  Biso   1.000  Hf
  Hf94     1.0000 0.74995  0.89495  0.25329  Biso   1.000  Hf
  Hf95     1.0000 0.75304  0.89603  0.75292  Biso   1.000  Hf
