data_image0
_cell_length_a       10.0357
_cell_length_b       10.3652
_cell_length_c       5.01362
_cell_angle_alpha    90.0613
_cell_angle_beta     90.1337
_cell_angle_gamma    89.9609

_symmetry_space_group_name_H-M    "P 1"
_symmetry_int_tables_number       1

loop_
  _symmetry_equiv_pos_as_xyz
  'x, y, z'

loop_
  _atom_site_label
  _atom_site_occupancy
  _atom_site_fract_x
  _atom_site_fract_y
  _atom_site_fract_z
  _atom_site_thermal_displace_type
  _atom_site_B_iso_or_equiv
  _atom_site_type_symbol
  Na1      1.0000 0.12886  0.01516  0.24959  Biso   1.000  Na
  Hf1      1.0000 0.13720  0.51602  0.25184  Biso   1.000  Hf
  Hf2      1.0000 0.63213  0.01453  0.24439  Biso   1.000  Hf
  Hf3      1.0000 0.63301  0.51604  0.25174  Biso   1.000  Hf
  Hf4      1.0000 0.13565  0.23251  0.75492  Biso   1.000  Hf
  Hf5      1.0000 0.13730  0.73431  0.75612  Biso   1.000  Hf
  Hf6      1.0000 0.63262  0.23182  0.74657  Biso   1.000  Hf
  Hf7      1.0000 0.63390  0.73285  0.75142  Biso   1.000  Hf
  Hf8      1.0000 0.36531  0.26579  0.25418  Biso   1.000  Hf
  Hf9      1.0000 0.36479  0.76730  0.25216  Biso   1.000  Hf
  Hf10     1.0000 0.85965  0.26535  0.24769  Biso   1.000  Hf
  Hf11     1.0000 0.86550  0.76641  0.25059  Biso   1.000  Hf
  Hf12     1.0000 0.36561  0.48231  0.75274  Biso   1.000  Hf
  Hf13     1.0000 0.36109  0.98196  0.75149  Biso   1.000  Hf
  Hf14     1.0000 0.86503  0.48398  0.75592  Biso   1.000  Hf
  Hf15     1.0000 0.86612  0.98143  0.74571  Biso   1.000  Hf
  Hf16     1.0000 0.02980  0.20518  0.40576  Biso   1.000  Hf
  Hf17     1.0000 0.03525  0.68243  0.39127  Biso   1.000  Hf
  Hf18     1.0000 0.54009  0.18568  0.37867  Biso   1.000  Hf
  Hf19     1.0000 0.53571  0.68190  0.39243  Biso   1.000  Hf
  Hf20     1.0000 0.03201  0.07216  0.84312  Biso   1.000  Hf
  Hf21     1.0000 0.03522  0.56606  0.89244  Biso   1.000  Hf
  Hf22     1.0000 0.53652  0.06470  0.88093  Biso   1.000  Hf
  Hf23     1.0000 0.53471  0.56615  0.89146  Biso   1.000  Hf
  Hf24     1.0000 0.46524  0.43334  0.39190  Biso   1.000  Hf
  Hf25     1.0000 0.46492  0.93452  0.39116  Biso   1.000  Hf
  Hf26     1.0000 0.96455  0.43672  0.39164  Biso   1.000  Hf
  Hf27     1.0000 0.94874  0.92817  0.39376  Biso   1.000  Hf
  Hf28     1.0000 0.46652  0.31698  0.88823  Biso   1.000  Hf
  Hf29     1.0000 0.47124  0.81872  0.89931  Biso   1.000  Hf
  Hf30     1.0000 0.96575  0.32026  0.89891  Biso   1.000  Hf
  Hf31     1.0000 0.96576  0.81522  0.89131  Biso   1.000  Hf
  Hf32     1.0000 0.28357  0.13007  0.51582  Biso   1.000  Hf
  Hf33     1.0000 0.27050  0.61521  0.49980  Biso   1.000  Hf
  Hf34     1.0000 0.76887  0.11553  0.49275  Biso   1.000  Hf
  Hf35     1.0000 0.77130  0.61578  0.49674  Biso   1.000  Hf
  Hf36     1.0000 0.27940  0.13338  0.99503  Biso   1.000  Hf
  Hf37     1.0000 0.27195  0.62845  0.00097  Biso   1.000  Hf
  Hf38     1.0000 0.76913  0.13324  0.99325  Biso   1.000  Hf
  Hf39     1.0000 0.76902  0.63073  0.99635  Biso   1.000  Hf
  Hf40     1.0000 0.23157  0.38162  0.00171  Biso   1.000  Hf
  Hf41     1.0000 0.23611  0.87237  0.99515  Biso   1.000  Hf
  Hf42     1.0000 0.72824  0.38302  0.99752  Biso   1.000  Hf
  Hf43     1.0000 0.73079  0.88071  0.99618  Biso   1.000  Hf
  Hf44     1.0000 0.22869  0.37076  0.50015  Biso   1.000  Hf
  Hf45     1.0000 0.23883  0.85907  0.51115  Biso   1.000  Hf
  Hf46     1.0000 0.73041  0.36768  0.49978  Biso   1.000  Hf
  Hf47     1.0000 0.72148  0.86517  0.49416  Biso   1.000  Hf
