data_image0
_cell_length_a       10.039
_cell_length_b       5.14855
_cell_length_c       10.0883
_cell_angle_alpha    90.0967
_cell_angle_beta     90.1175
_cell_angle_gamma    89.9822

_symmetry_space_group_name_H-M    "P 1"
_symmetry_int_tables_number       1

loop_
  _symmetry_equiv_pos_as_xyz
  'x, y, z'

loop_
  _atom_site_label
  _atom_site_occupancy
  _atom_site_fract_x
  _atom_site_fract_y
  _atom_site_fract_z
  _atom_site_thermal_displace_type
  _atom_site_B_iso_or_equiv
  _atom_site_type_symbol
  Na1      1.0000 0.13141  0.03061  0.12065  Biso   1.000  Na
  Hf1      1.0000 0.13342  0.03458  0.62787  Biso   1.000  Hf
  Hf2      1.0000 0.63336  0.02816  0.12308  Biso   1.000  Hf
  Hf3      1.0000 0.63127  0.03014  0.62374  Biso   1.000  Hf
  Hf4      1.0000 0.13708  0.46821  0.37596  Biso   1.000  Hf
  Hf5      1.0000 0.13897  0.46787  0.87834  Biso   1.000  Hf
  Hf6      1.0000 0.63128  0.46589  0.37524  Biso   1.000  Hf
  Hf7      1.0000 0.63545  0.46433  0.87315  Biso   1.000  Hf
  Hf8      1.0000 0.36084  0.53166  0.12638  Biso   1.000  Hf
  Hf9      1.0000 0.36533  0.53469  0.62622  Biso   1.000  Hf
  Hf10     1.0000 0.86160  0.53172  0.12437  Biso   1.000  Hf
  Hf11     1.0000 0.86517  0.53084  0.62362  Biso   1.000  Hf
  Hf12     1.0000 0.36053  0.96744  0.37317  Biso   1.000  Hf
  Hf13     1.0000 0.36273  0.96527  0.87884  Biso   1.000  Hf
  Hf14     1.0000 0.86585  0.96636  0.37696  Biso   1.000  Hf
  Hf15     1.0000 0.86515  0.96562  0.87229  Biso   1.000  Hf
  Hf16     1.0000 0.02707  0.39891  0.20728  Biso   1.000  Hf
  Hf17     1.0000 0.03764  0.37694  0.69020  Biso   1.000  Hf
  Hf18     1.0000 0.53729  0.36713  0.19336  Biso   1.000  Hf
  Hf19     1.0000 0.53510  0.36588  0.69444  Biso   1.000  Hf
  Hf20     1.0000 0.03335  0.13361  0.44806  Biso   1.000  Hf
  Hf21     1.0000 0.03192  0.14441  0.92169  Biso   1.000  Hf
  Hf22     1.0000 0.53359  0.13105  0.44448  Biso   1.000  Hf
  Hf23     1.0000 0.53735  0.12919  0.94317  Biso   1.000  Hf
  Hf24     1.0000 0.46697  0.86794  0.19639  Biso   1.000  Hf
  Hf25     1.0000 0.46470  0.86615  0.69679  Biso   1.000  Hf
  Hf26     1.0000 0.95474  0.85875  0.20225  Biso   1.000  Hf
  Hf27     1.0000 0.96210  0.86895  0.69154  Biso   1.000  Hf
  Hf28     1.0000 0.46637  0.63384  0.44907  Biso   1.000  Hf
  Hf29     1.0000 0.47235  0.63499  0.94692  Biso   1.000  Hf
  Hf30     1.0000 0.96595  0.63600  0.44861  Biso   1.000  Hf
  Hf31     1.0000 0.96662  0.63644  0.94542  Biso   1.000  Hf
  Hf32     1.0000 0.28105  0.25067  0.25525  Biso   1.000  Hf
  Hf33     1.0000 0.27145  0.23707  0.74865  Biso   1.000  Hf
  Hf34     1.0000 0.76905  0.22748  0.24667  Biso   1.000  Hf
  Hf35     1.0000 0.77003  0.23212  0.74541  Biso   1.000  Hf
  Hf36     1.0000 0.26951  0.26247  0.50190  Biso   1.000  Hf
  Hf37     1.0000 0.28031  0.26735  0.99351  Biso   1.000  Hf
  Hf38     1.0000 0.76764  0.26759  0.49702  Biso   1.000  Hf
  Hf39     1.0000 0.77082  0.26213  0.99598  Biso   1.000  Hf
  Hf40     1.0000 0.22922  0.76628  0.50217  Biso   1.000  Hf
  Hf41     1.0000 0.23788  0.74867  0.99572  Biso   1.000  Hf
  Hf42     1.0000 0.72962  0.76522  0.49801  Biso   1.000  Hf
  Hf43     1.0000 0.73046  0.76318  0.99752  Biso   1.000  Hf
  Hf44     1.0000 0.23897  0.72340  0.25724  Biso   1.000  Hf
  Hf45     1.0000 0.22908  0.73805  0.74865  Biso   1.000  Hf
  Hf46     1.0000 0.72394  0.72928  0.24816  Biso   1.000  Hf
  Hf47     1.0000 0.72920  0.73228  0.74700  Biso   1.000  Hf
