data_image0
_cell_length_a       10.0511
_cell_length_b       5.27363
_cell_length_c       10.1374
_cell_angle_alpha    89.6768
_cell_angle_beta     89.2685
_cell_angle_gamma    89.8811

_symmetry_space_group_name_H-M    "P 1"
_symmetry_int_tables_number       1

loop_
  _symmetry_equiv_pos_as_xyz
  'x, y, z'

loop_
  _atom_site_label
  _atom_site_occupancy
  _atom_site_fract_x
  _atom_site_fract_y
  _atom_site_fract_z
  _atom_site_thermal_displace_type
  _atom_site_B_iso_or_equiv
  _atom_site_type_symbol
  Hf1      1.0000 0.12103  0.12078  0.10813  Biso   1.000  Hf
  Hf2      1.0000 0.13748  0.43844  0.38768  Biso   1.000  Hf
  Hf3      1.0000 0.39105  0.55265  0.11334  Biso   1.000  Hf
  Hf4      1.0000 0.36505  0.94759  0.37723  Biso   1.000  Hf
  Hf5      1.0000 0.00495  0.37067  0.23013  Biso   1.000  Hf
  Hf6      1.0000 0.03587  0.11062  0.45408  Biso   1.000  Hf
  Hf7      1.0000 0.47539  0.86586  0.20361  Biso   1.000  Hf
  Hf8      1.0000 0.47098  0.62344  0.45617  Biso   1.000  Hf
  Hf9      1.0000 0.24905  0.16668  0.26122  Biso   1.000  Hf
  Hf10     1.0000 0.27592  0.24525  0.50627  Biso   1.000  Hf
  Hf11     1.0000 0.23069  0.74740  0.50576  Biso   1.000  Hf
  Hf12     1.0000 0.25981  0.65449  0.26381  Biso   1.000  Hf
  Hf13     1.0000 0.13472  0.01114  0.62764  Biso   1.000  Hf
  Hf14     1.0000 0.11811  0.45917  0.84973  Biso   1.000  Hf
  Hf15     1.0000 0.36783  0.52055  0.62747  Biso   1.000  Hf
  Hf16     1.0000 0.37918  0.98003  0.86551  Biso   1.000  Hf
  Hf17     1.0000 0.03188  0.34879  0.67471  Biso   1.000  Hf
  Hf18     1.0000 0.02968  0.12785  0.92012  Biso   1.000  Hf
  Hf19     1.0000 0.46983  0.85161  0.69205  Biso   1.000  Hf
  Hf20     1.0000 0.47818  0.65819  0.93653  Biso   1.000  Hf
  Hf21     1.0000 0.26418  0.22151  0.75036  Biso   1.000  Hf
  Hf22     1.0000 0.25374  0.36971  0.99631  Biso   1.000  Hf
  Hf23     1.0000 0.26109  0.86730  0.01598  Biso   1.000  Hf
  Hf24     1.0000 0.23723  0.72569  0.75562  Biso   1.000  Hf
  Hf25     1.0000 0.63581  0.03400  0.12834  Biso   1.000  Hf
  Hf26     1.0000 0.63287  0.46010  0.37579  Biso   1.000  Hf
  Hf27     1.0000 0.85156  0.53134  0.12345  Biso   1.000  Hf
  Hf28     1.0000 0.87332  0.96326  0.37157  Biso   1.000  Hf
  Hf29     1.0000 0.53509  0.36055  0.20329  Biso   1.000  Hf
  Hf30     1.0000 0.53409  0.12587  0.44704  Biso   1.000  Hf
  Hf31     1.0000 0.96890  0.87292  0.19310  Biso   1.000  Hf
  Hf32     1.0000 0.96837  0.63263  0.44733  Biso   1.000  Hf
  Hf33     1.0000 0.76413  0.22202  0.24890  Biso   1.000  Hf
  Hf34     1.0000 0.76819  0.26475  0.49583  Biso   1.000  Hf
  Hf35     1.0000 0.73527  0.76623  0.49729  Biso   1.000  Hf
  Hf36     1.0000 0.73012  0.73090  0.25169  Biso   1.000  Hf
  Hf37     1.0000 0.63408  0.02411  0.61754  Biso   1.000  Hf
  Hf38     1.0000 0.63730  0.45956  0.87051  Biso   1.000  Hf
  Hf39     1.0000 0.86506  0.52797  0.61605  Biso   1.000  Hf
  Hf40     1.0000 0.86009  0.95789  0.86958  Biso   1.000  Hf
  Hf41     1.0000 0.52880  0.34224  0.70552  Biso   1.000  Hf
  Hf42     1.0000 0.52505  0.16255  0.96088  Biso   1.000  Hf
  Hf43     1.0000 0.96975  0.83754  0.70155  Biso   1.000  Hf
  Hf44     1.0000 0.96473  0.64247  0.95224  Biso   1.000  Hf
  Hf45     1.0000 0.76765  0.22133  0.74399  Biso   1.000  Hf
  Hf46     1.0000 0.76960  0.26210  0.99493  Biso   1.000  Hf
  Hf47     1.0000 0.72465  0.76740  0.99779  Biso   1.000  Hf
  Hf48     1.0000 0.73109  0.72300  0.74599  Biso   1.000  Hf
  Nb1      1.0000 0.11677  0.62416  0.10709  Biso   1.000  Nb
