data_image0
_cell_length_a       9.94002
_cell_length_b       5.17809
_cell_length_c       9.98972
_cell_angle_alpha    89.9628
_cell_angle_beta     89.9822
_cell_angle_gamma    90.0014

_symmetry_space_group_name_H-M    "P 1"
_symmetry_int_tables_number       1

loop_
  _symmetry_equiv_pos_as_xyz
  'x, y, z'

loop_
  _atom_site_label
  _atom_site_occupancy
  _atom_site_fract_x
  _atom_site_fract_y
  _atom_site_fract_z
  _atom_site_thermal_displace_type
  _atom_site_B_iso_or_equiv
  _atom_site_type_symbol
  Nb1      1.0000 0.13550  0.03686  0.12634  Biso   1.000  Nb
  Hf1      1.0000 0.13342  0.46670  0.37590  Biso   1.000  Hf
  Hf2      1.0000 0.36541  0.53568  0.12606  Biso   1.000  Hf
  Hf3      1.0000 0.36555  0.96695  0.37546  Biso   1.000  Hf
  Hf4      1.0000 0.03851  0.36543  0.19267  Biso   1.000  Hf
  Hf5      1.0000 0.03525  0.13342  0.44655  Biso   1.000  Hf
  Hf6      1.0000 0.46384  0.86895  0.19406  Biso   1.000  Hf
  Hf7      1.0000 0.46350  0.63181  0.44354  Biso   1.000  Hf
  Hf8      1.0000 0.27050  0.23723  0.24840  Biso   1.000  Hf
  Hf9      1.0000 0.27074  0.26429  0.49929  Biso   1.000  Hf
  Hf10     1.0000 0.22908  0.76427  0.49991  Biso   1.000  Hf
  Hf11     1.0000 0.22764  0.73902  0.24958  Biso   1.000  Hf
  Hf12     1.0000 0.13400  0.03263  0.62641  Biso   1.000  Hf
  Hf13     1.0000 0.13378  0.46599  0.87716  Biso   1.000  Hf
  Hf14     1.0000 0.36576  0.53311  0.62596  Biso   1.000  Hf
  Hf15     1.0000 0.36505  0.96671  0.87664  Biso   1.000  Hf
  Hf16     1.0000 0.03538  0.36604  0.69690  Biso   1.000  Hf
  Hf17     1.0000 0.03672  0.12952  0.95056  Biso   1.000  Hf
  Hf18     1.0000 0.46281  0.86937  0.69397  Biso   1.000  Hf
  Hf19     1.0000 0.46213  0.63052  0.94383  Biso   1.000  Hf
  Hf20     1.0000 0.27072  0.23567  0.75016  Biso   1.000  Hf
  Hf21     1.0000 0.27074  0.26189  0.00083  Biso   1.000  Hf
  Hf22     1.0000 0.22620  0.76471  0.00092  Biso   1.000  Hf
  Hf23     1.0000 0.22906  0.73451  0.75051  Biso   1.000  Hf
  Hf24     1.0000 0.63457  0.03390  0.12587  Biso   1.000  Hf
  Hf25     1.0000 0.63449  0.46785  0.37537  Biso   1.000  Hf
  Hf26     1.0000 0.86749  0.53313  0.12499  Biso   1.000  Hf
  Hf27     1.0000 0.86663  0.96740  0.37585  Biso   1.000  Hf
  Hf28     1.0000 0.53675  0.37000  0.19341  Biso   1.000  Hf
  Hf29     1.0000 0.53642  0.13192  0.44326  Biso   1.000  Hf
  Hf30     1.0000 0.96903  0.86714  0.19366  Biso   1.000  Hf
  Hf31     1.0000 0.96407  0.63211  0.44521  Biso   1.000  Hf
  Hf32     1.0000 0.77210  0.23618  0.24954  Biso   1.000  Hf
  Hf33     1.0000 0.77059  0.26474  0.49968  Biso   1.000  Hf
  Hf34     1.0000 0.72934  0.76483  0.49947  Biso   1.000  Hf
  Hf35     1.0000 0.73142  0.73689  0.24914  Biso   1.000  Hf
  Hf36     1.0000 0.63359  0.03284  0.62565  Biso   1.000  Hf
  Hf37     1.0000 0.63364  0.46669  0.87595  Biso   1.000  Hf
  Hf38     1.0000 0.86582  0.53237  0.62650  Biso   1.000  Hf
  Hf39     1.0000 0.86613  0.96698  0.87622  Biso   1.000  Hf
  Hf40     1.0000 0.53647  0.36939  0.69369  Biso   1.000  Hf
  Hf41     1.0000 0.53633  0.13040  0.94372  Biso   1.000  Hf
  Hf42     1.0000 0.96374  0.86786  0.69496  Biso   1.000  Hf
  Hf43     1.0000 0.96221  0.62936  0.94269  Biso   1.000  Hf
  Hf44     1.0000 0.77013  0.23478  0.74990  Biso   1.000  Hf
  Hf45     1.0000 0.77077  0.26421  0.99970  Biso   1.000  Hf
  Hf46     1.0000 0.72907  0.76449  0.99959  Biso   1.000  Hf
  Hf47     1.0000 0.72894  0.73551  0.74976  Biso   1.000  Hf
