data_image0
_cell_length_a       10.0045
_cell_length_b       10.1907
_cell_length_c       10.0045
_cell_angle_alpha    90.0013
_cell_angle_beta     89.9993
_cell_angle_gamma    90.0016

_symmetry_space_group_name_H-M    "P 1"
_symmetry_int_tables_number       1

loop_
  _symmetry_equiv_pos_as_xyz
  'x, y, z'

loop_
  _atom_site_label
  _atom_site_occupancy
  _atom_site_fract_x
  _atom_site_fract_y
  _atom_site_fract_z
  _atom_site_thermal_displace_type
  _atom_site_B_iso_or_equiv
  _atom_site_type_symbol
  Nb1      1.0000 0.12500  0.00009  0.12500  Biso   1.000  Nb
  Hf1      1.0000 0.12580  0.25023  0.37459  Biso   1.000  Hf
  Hf2      1.0000 0.37459  0.25023  0.12580  Biso   1.000  Hf
  Hf3      1.0000 0.37454  0.00038  0.37454  Biso   1.000  Hf
  Hf4      1.0000 0.99650  0.14653  0.99651  Biso   1.000  Hf
  Hf5      1.0000 0.00327  0.10120  0.24672  Biso   1.000  Hf
  Hf6      1.0000 0.99979  0.35191  0.25020  Biso   1.000  Hf
  Hf7      1.0000 0.00019  0.39767  0.00019  Biso   1.000  Hf
  Hf8      1.0000 0.25347  0.14653  0.25347  Biso   1.000  Hf
  Hf9      1.0000 0.24670  0.10120  0.00326  Biso   1.000  Hf
  Hf10     1.0000 0.25020  0.35191  0.99979  Biso   1.000  Hf
  Hf11     1.0000 0.24980  0.39766  0.24980  Biso   1.000  Hf
  Hf12     1.0000 0.12500  0.00009  0.62500  Biso   1.000  Hf
  Hf13     1.0000 0.12418  0.25023  0.87539  Biso   1.000  Hf
  Hf14     1.0000 0.37494  0.24961  0.62547  Biso   1.000  Hf
  Hf15     1.0000 0.37454  0.99981  0.87545  Biso   1.000  Hf
  Hf16     1.0000 0.99785  0.14759  0.49610  Biso   1.000  Hf
  Hf17     1.0000 0.00052  0.10269  0.74756  Biso   1.000  Hf
  Hf18     1.0000 0.99926  0.35241  0.75033  Biso   1.000  Hf
  Hf19     1.0000 0.00056  0.39765  0.50011  Biso   1.000  Hf
  Hf20     1.0000 0.25212  0.14759  0.75387  Biso   1.000  Hf
  Hf21     1.0000 0.24945  0.10270  0.50242  Biso   1.000  Hf
  Hf22     1.0000 0.25073  0.35241  0.49966  Biso   1.000  Hf
  Hf23     1.0000 0.24943  0.39764  0.74988  Biso   1.000  Hf
  Hf24     1.0000 0.12500  0.50010  0.12500  Biso   1.000  Hf
  Hf25     1.0000 0.12418  0.74996  0.37459  Biso   1.000  Hf
  Hf26     1.0000 0.37459  0.74996  0.12418  Biso   1.000  Hf
  Hf27     1.0000 0.37546  0.50024  0.37546  Biso   1.000  Hf
  Hf28     1.0000 0.99979  0.64828  0.99979  Biso   1.000  Hf
  Hf29     1.0000 0.00019  0.60252  0.24980  Biso   1.000  Hf
  Hf30     1.0000 0.99651  0.85366  0.25347  Biso   1.000  Hf
  Hf31     1.0000 0.00328  0.89898  0.00327  Biso   1.000  Hf
  Hf32     1.0000 0.25020  0.64828  0.25019  Biso   1.000  Hf
  Hf33     1.0000 0.24980  0.60252  0.00019  Biso   1.000  Hf
  Hf34     1.0000 0.25348  0.85366  0.99652  Biso   1.000  Hf
  Hf35     1.0000 0.24671  0.89898  0.24672  Biso   1.000  Hf
  Hf36     1.0000 0.12500  0.50010  0.62500  Biso   1.000  Hf
  Hf37     1.0000 0.12580  0.74996  0.87539  Biso   1.000  Hf
  Hf38     1.0000 0.37494  0.75058  0.62452  Biso   1.000  Hf
  Hf39     1.0000 0.37546  0.49994  0.87454  Biso   1.000  Hf
  Hf40     1.0000 0.99927  0.64777  0.49966  Biso   1.000  Hf
  Hf41     1.0000 0.00056  0.60254  0.74988  Biso   1.000  Hf
  Hf42     1.0000 0.99786  0.85259  0.75388  Biso   1.000  Hf
  Hf43     1.0000 0.00053  0.89749  0.50242  Biso   1.000  Hf
  Hf44     1.0000 0.25073  0.64777  0.75032  Biso   1.000  Hf
  Hf45     1.0000 0.24943  0.60254  0.50011  Biso   1.000  Hf
  Hf46     1.0000 0.25213  0.85259  0.49611  Biso   1.000  Hf
  Hf47     1.0000 0.24946  0.89749  0.74756  Biso   1.000  Hf
  Hf48     1.0000 0.62500  0.00009  0.12500  Biso   1.000  Hf
  Hf49     1.0000 0.62547  0.24961  0.37494  Biso   1.000  Hf
  Hf50     1.0000 0.87539  0.25023  0.12418  Biso   1.000  Hf
  Hf51     1.0000 0.87545  0.99981  0.37454  Biso   1.000  Hf
  Hf52     1.0000 0.49609  0.14759  0.99785  Biso   1.000  Hf
  Hf53     1.0000 0.50242  0.10270  0.24945  Biso   1.000  Hf
  Hf54     1.0000 0.49966  0.35241  0.25072  Biso   1.000  Hf
  Hf55     1.0000 0.50011  0.39765  0.00056  Biso   1.000  Hf
  Hf56     1.0000 0.75388  0.14759  0.25212  Biso   1.000  Hf
  Hf57     1.0000 0.74755  0.10270  0.00052  Biso   1.000  Hf
  Hf58     1.0000 0.75033  0.35241  0.99926  Biso   1.000  Hf
  Hf59     1.0000 0.74987  0.39764  0.24943  Biso   1.000  Hf
  Hf60     1.0000 0.62500  0.00009  0.62500  Biso   1.000  Hf
  Hf61     1.0000 0.62452  0.24961  0.87505  Biso   1.000  Hf
  Hf62     1.0000 0.87505  0.24961  0.62452  Biso   1.000  Hf
  Hf63     1.0000 0.87545  0.00037  0.87546  Biso   1.000  Hf
  Hf64     1.0000 0.49823  0.14765  0.49823  Biso   1.000  Hf
  Hf65     1.0000 0.50088  0.10251  0.74909  Biso   1.000  Hf
  Hf66     1.0000 0.49918  0.35269  0.75080  Biso   1.000  Hf
  Hf67     1.0000 0.50049  0.39746  0.50048  Biso   1.000  Hf
  Hf68     1.0000 0.75175  0.14765  0.75174  Biso   1.000  Hf
  Hf69     1.0000 0.74909  0.10251  0.50087  Biso   1.000  Hf
  Hf70     1.0000 0.75081  0.35269  0.49918  Biso   1.000  Hf
  Hf71     1.0000 0.74950  0.39746  0.74950  Biso   1.000  Hf
  Hf72     1.0000 0.62500  0.50010  0.12500  Biso   1.000  Hf
  Hf73     1.0000 0.62452  0.75058  0.37494  Biso   1.000  Hf
  Hf74     1.0000 0.87539  0.74995  0.12580  Biso   1.000  Hf
  Hf75     1.0000 0.87454  0.49994  0.37546  Biso   1.000  Hf
  Hf76     1.0000 0.49967  0.64777  0.99927  Biso   1.000  Hf
  Hf77     1.0000 0.50011  0.60254  0.24943  Biso   1.000  Hf
  Hf78     1.0000 0.49610  0.85259  0.25213  Biso   1.000  Hf
  Hf79     1.0000 0.50243  0.89749  0.00053  Biso   1.000  Hf
  Hf80     1.0000 0.75032  0.64777  0.25072  Biso   1.000  Hf
  Hf81     1.0000 0.74988  0.60254  0.00056  Biso   1.000  Hf
  Hf82     1.0000 0.75389  0.85259  0.99786  Biso   1.000  Hf
  Hf83     1.0000 0.74756  0.89749  0.24946  Biso   1.000  Hf
  Hf84     1.0000 0.62500  0.50010  0.62500  Biso   1.000  Hf
  Hf85     1.0000 0.62547  0.75058  0.87505  Biso   1.000  Hf
  Hf86     1.0000 0.87505  0.75058  0.62546  Biso   1.000  Hf
  Hf87     1.0000 0.87454  0.50024  0.87454  Biso   1.000  Hf
  Hf88     1.0000 0.49919  0.64750  0.49919  Biso   1.000  Hf
  Hf89     1.0000 0.50049  0.60273  0.74951  Biso   1.000  Hf
  Hf90     1.0000 0.49823  0.85253  0.75176  Biso   1.000  Hf
  Hf91     1.0000 0.50088  0.89768  0.50088  Biso   1.000  Hf
  Hf92     1.0000 0.75080  0.64750  0.75080  Biso   1.000  Hf
  Hf93     1.0000 0.74950  0.60273  0.50048  Biso   1.000  Hf
  Hf94     1.0000 0.75175  0.85253  0.49824  Biso   1.000  Hf
  Hf95     1.0000 0.74910  0.89768  0.74910  Biso   1.000  Hf
