data_image0
_cell_length_a       9.94902
_cell_length_b       10.3593
_cell_length_c       9.994
_cell_angle_alpha    89.9725
_cell_angle_beta     89.9883
_cell_angle_gamma    89.9979

_symmetry_space_group_name_H-M    "P 1"
_symmetry_int_tables_number       1

loop_
  _symmetry_equiv_pos_as_xyz
  'x, y, z'

loop_
  _atom_site_label
  _atom_site_occupancy
  _atom_site_fract_x
  _atom_site_fract_y
  _atom_site_fract_z
  _atom_site_thermal_displace_type
  _atom_site_B_iso_or_equiv
  _atom_site_type_symbol
  Nb1      1.0000 0.13521  0.01881  0.12541  Biso   1.000  Nb
  Hf1      1.0000 0.13364  0.23308  0.37579  Biso   1.000  Hf
  Hf2      1.0000 0.36637  0.26700  0.12586  Biso   1.000  Hf
  Hf3      1.0000 0.36600  0.48381  0.37621  Biso   1.000  Hf
  Hf4      1.0000 0.03737  0.18267  0.19423  Biso   1.000  Hf
  Hf5      1.0000 0.03534  0.06667  0.44702  Biso   1.000  Hf
  Hf6      1.0000 0.46341  0.43471  0.19379  Biso   1.000  Hf
  Hf7      1.0000 0.46351  0.31584  0.44389  Biso   1.000  Hf
  Hf8      1.0000 0.26983  0.11782  0.24800  Biso   1.000  Hf
  Hf9      1.0000 0.27080  0.13218  0.49915  Biso   1.000  Hf
  Hf10     1.0000 0.22921  0.38211  0.49995  Biso   1.000  Hf
  Hf11     1.0000 0.22962  0.36798  0.25014  Biso   1.000  Hf
  Hf12     1.0000 0.13419  0.01649  0.62650  Biso   1.000  Hf
  Hf13     1.0000 0.13433  0.23356  0.87693  Biso   1.000  Hf
  Hf14     1.0000 0.36589  0.26649  0.62595  Biso   1.000  Hf
  Hf15     1.0000 0.36590  0.48375  0.87593  Biso   1.000  Hf
  Hf16     1.0000 0.03551  0.18331  0.69720  Biso   1.000  Hf
  Hf17     1.0000 0.03712  0.06512  0.94996  Biso   1.000  Hf
  Hf18     1.0000 0.46323  0.43458  0.69370  Biso   1.000  Hf
  Hf19     1.0000 0.46306  0.31526  0.94365  Biso   1.000  Hf
  Hf20     1.0000 0.27082  0.11793  0.75002  Biso   1.000  Hf
  Hf21     1.0000 0.27129  0.13084  0.00021  Biso   1.000  Hf
  Hf22     1.0000 0.22926  0.38196  0.00010  Biso   1.000  Hf
  Hf23     1.0000 0.22910  0.36754  0.75018  Biso   1.000  Hf
  Hf24     1.0000 0.13431  0.51650  0.12647  Biso   1.000  Hf
  Hf25     1.0000 0.13403  0.73401  0.37609  Biso   1.000  Hf
  Hf26     1.0000 0.36490  0.76755  0.12631  Biso   1.000  Hf
  Hf27     1.0000 0.36560  0.98339  0.37534  Biso   1.000  Hf
  Hf28     1.0000 0.03676  0.68401  0.19405  Biso   1.000  Hf
  Hf29     1.0000 0.03652  0.56570  0.44383  Biso   1.000  Hf
  Hf30     1.0000 0.46403  0.93422  0.19459  Biso   1.000  Hf
  Hf31     1.0000 0.46351  0.81583  0.44379  Biso   1.000  Hf
  Hf32     1.0000 0.27107  0.61870  0.25012  Biso   1.000  Hf
  Hf33     1.0000 0.27074  0.63228  0.49993  Biso   1.000  Hf
  Hf34     1.0000 0.22937  0.88237  0.49990  Biso   1.000  Hf
  Hf35     1.0000 0.22724  0.86964  0.24931  Biso   1.000  Hf
  Hf36     1.0000 0.13388  0.51631  0.62589  Biso   1.000  Hf
  Hf37     1.0000 0.13370  0.73316  0.87597  Biso   1.000  Hf
  Hf38     1.0000 0.36607  0.76653  0.62598  Biso   1.000  Hf
  Hf39     1.0000 0.36526  0.98316  0.87673  Biso   1.000  Hf
  Hf40     1.0000 0.03634  0.68410  0.69387  Biso   1.000  Hf
  Hf41     1.0000 0.03636  0.56516  0.94455  Biso   1.000  Hf
  Hf42     1.0000 0.46328  0.93452  0.69438  Biso   1.000  Hf
  Hf43     1.0000 0.46262  0.81562  0.94444  Biso   1.000  Hf
  Hf44     1.0000 0.27056  0.61763  0.74982  Biso   1.000  Hf
  Hf45     1.0000 0.27081  0.63218  0.00000  Biso   1.000  Hf
  Hf46     1.0000 0.22604  0.88232  0.00056  Biso   1.000  Hf
  Hf47     1.0000 0.22952  0.86747  0.75017  Biso   1.000  Hf
  Hf48     1.0000 0.63426  0.01653  0.12580  Biso   1.000  Hf
  Hf49     1.0000 0.63403  0.23354  0.37617  Biso   1.000  Hf
  Hf50     1.0000 0.86586  0.26614  0.12607  Biso   1.000  Hf
  Hf51     1.0000 0.86590  0.48357  0.37612  Biso   1.000  Hf
  Hf52     1.0000 0.53653  0.18442  0.19409  Biso   1.000  Hf
  Hf53     1.0000 0.53610  0.06568  0.44379  Biso   1.000  Hf
  Hf54     1.0000 0.96419  0.43325  0.19458  Biso   1.000  Hf
  Hf55     1.0000 0.96363  0.31568  0.44461  Biso   1.000  Hf
  Hf56     1.0000 0.77117  0.11796  0.24969  Biso   1.000  Hf
  Hf57     1.0000 0.77057  0.13222  0.49972  Biso   1.000  Hf
  Hf58     1.0000 0.72928  0.38226  0.50003  Biso   1.000  Hf
  Hf59     1.0000 0.72928  0.36793  0.24994  Biso   1.000  Hf
  Hf60     1.0000 0.63373  0.01627  0.62573  Biso   1.000  Hf
  Hf61     1.0000 0.63388  0.23323  0.87584  Biso   1.000  Hf
  Hf62     1.0000 0.86598  0.26602  0.62625  Biso   1.000  Hf
  Hf63     1.0000 0.86582  0.48337  0.87611  Biso   1.000  Hf
  Hf64     1.0000 0.53663  0.18460  0.69365  Biso   1.000  Hf
  Hf65     1.0000 0.53637  0.06535  0.94405  Biso   1.000  Hf
  Hf66     1.0000 0.96346  0.43406  0.69420  Biso   1.000  Hf
  Hf67     1.0000 0.96354  0.31518  0.94440  Biso   1.000  Hf
  Hf68     1.0000 0.77035  0.11733  0.74983  Biso   1.000  Hf
  Hf69     1.0000 0.77092  0.13214  0.99963  Biso   1.000  Hf
  Hf70     1.0000 0.72923  0.38193  0.00011  Biso   1.000  Hf
  Hf71     1.0000 0.72928  0.36757  0.74991  Biso   1.000  Hf
  Hf72     1.0000 0.63421  0.51691  0.12612  Biso   1.000  Hf
  Hf73     1.0000 0.63443  0.73402  0.37529  Biso   1.000  Hf
  Hf74     1.0000 0.86736  0.76684  0.12511  Biso   1.000  Hf
  Hf75     1.0000 0.86711  0.98387  0.37551  Biso   1.000  Hf
  Hf76     1.0000 0.53640  0.68497  0.19349  Biso   1.000  Hf
  Hf77     1.0000 0.53678  0.56602  0.44372  Biso   1.000  Hf
  Hf78     1.0000 0.96812  0.93469  0.19325  Biso   1.000  Hf
  Hf79     1.0000 0.96397  0.81602  0.44460  Biso   1.000  Hf
  Hf80     1.0000 0.77104  0.61793  0.24977  Biso   1.000  Hf
  Hf81     1.0000 0.77073  0.63252  0.49983  Biso   1.000  Hf
  Hf82     1.0000 0.72952  0.88257  0.49922  Biso   1.000  Hf
  Hf83     1.0000 0.73148  0.86819  0.24903  Biso   1.000  Hf
  Hf84     1.0000 0.63404  0.51660  0.62593  Biso   1.000  Hf
  Hf85     1.0000 0.63380  0.73364  0.87615  Biso   1.000  Hf
  Hf86     1.0000 0.86591  0.76661  0.62615  Biso   1.000  Hf
  Hf87     1.0000 0.86632  0.98349  0.87617  Biso   1.000  Hf
  Hf88     1.0000 0.53649  0.68454  0.69418  Biso   1.000  Hf
  Hf89     1.0000 0.53675  0.56534  0.94361  Biso   1.000  Hf
  Hf90     1.0000 0.96404  0.93415  0.69513  Biso   1.000  Hf
  Hf91     1.0000 0.96234  0.81485  0.94252  Biso   1.000  Hf
  Hf92     1.0000 0.77060  0.61773  0.75000  Biso   1.000  Hf
  Hf93     1.0000 0.77072  0.63223  0.99999  Biso   1.000  Hf
  Hf94     1.0000 0.72915  0.88253  0.99933  Biso   1.000  Hf
  Hf95     1.0000 0.72920  0.86788  0.74973  Biso   1.000  Hf
