data_image0
_cell_length_a       10.0627
_cell_length_b       10.0957
_cell_length_c       5.11046
_cell_angle_alpha    90.0003
_cell_angle_beta     89.9997
_cell_angle_gamma    90.0001

_symmetry_space_group_name_H-M    "P 1"
_symmetry_int_tables_number       1

loop_
  _symmetry_equiv_pos_as_xyz
  'x, y, z'

loop_
  _atom_site_label
  _atom_site_occupancy
  _atom_site_fract_x
  _atom_site_fract_y
  _atom_site_fract_z
  _atom_site_thermal_displace_type
  _atom_site_B_iso_or_equiv
  _atom_site_type_symbol
  Hf1      1.0000 0.12491  0.98361  0.24982  Biso   1.000  Hf
  Hf2      1.0000 0.12491  0.25001  0.74982  Biso   1.000  Hf
  Hf3      1.0000 0.39792  0.25001  0.24982  Biso   1.000  Hf
  Hf4      1.0000 0.37226  0.00032  0.74984  Biso   1.000  Hf
  Hf5      1.0000 0.00299  0.13064  0.98295  Biso   1.000  Hf
  Hf6      1.0000 0.99742  0.11886  0.47378  Biso   1.000  Hf
  Hf7      1.0000 0.00299  0.36937  0.51668  Biso   1.000  Hf
  Hf8      1.0000 0.99742  0.38115  0.02585  Biso   1.000  Hf
  Hf9      1.0000 0.24683  0.13064  0.51668  Biso   1.000  Hf
  Hf10     1.0000 0.25240  0.11886  0.02586  Biso   1.000  Hf
  Hf11     1.0000 0.24683  0.36937  0.98295  Biso   1.000  Hf
  Hf12     1.0000 0.25240  0.38115  0.47378  Biso   1.000  Hf
  Hf13     1.0000 0.12491  0.51641  0.24982  Biso   1.000  Hf
  Hf14     1.0000 0.12491  0.75001  0.74982  Biso   1.000  Hf
  Hf15     1.0000 0.38045  0.75001  0.24982  Biso   1.000  Hf
  Hf16     1.0000 0.37226  0.49970  0.74980  Biso   1.000  Hf
  Hf17     1.0000 0.00542  0.63079  0.96812  Biso   1.000  Hf
  Hf18     1.0000 0.99043  0.62103  0.46956  Biso   1.000  Hf
  Hf19     1.0000 0.00541  0.86922  0.53150  Biso   1.000  Hf
  Hf20     1.0000 0.99043  0.87898  0.03007  Biso   1.000  Hf
  Hf21     1.0000 0.24439  0.63079  0.53151  Biso   1.000  Hf
  Hf22     1.0000 0.25939  0.62103  0.03008  Biso   1.000  Hf
  Hf23     1.0000 0.24440  0.86922  0.96814  Biso   1.000  Hf
  Hf24     1.0000 0.25939  0.87898  0.46957  Biso   1.000  Hf
  Hf25     1.0000 0.62491  0.00185  0.24982  Biso   1.000  Hf
  Hf26     1.0000 0.62491  0.25001  0.74982  Biso   1.000  Hf
  Hf27     1.0000 0.85190  0.25001  0.24981  Biso   1.000  Hf
  Hf28     1.0000 0.87755  0.00032  0.74980  Biso   1.000  Hf
  Hf29     1.0000 0.49966  0.13214  0.96364  Biso   1.000  Hf
  Hf30     1.0000 0.49480  0.10930  0.47693  Biso   1.000  Hf
  Hf31     1.0000 0.49965  0.36787  0.53601  Biso   1.000  Hf
  Hf32     1.0000 0.49481  0.39071  0.02271  Biso   1.000  Hf
  Hf33     1.0000 0.75016  0.13214  0.53600  Biso   1.000  Hf
  Hf34     1.0000 0.75501  0.10930  0.02270  Biso   1.000  Hf
  Hf35     1.0000 0.75016  0.36787  0.96363  Biso   1.000  Hf
  Hf36     1.0000 0.75501  0.39071  0.47693  Biso   1.000  Hf
  Hf37     1.0000 0.62491  0.49816  0.24982  Biso   1.000  Hf
  Hf38     1.0000 0.62491  0.75001  0.74982  Biso   1.000  Hf
  Hf39     1.0000 0.86936  0.75001  0.24981  Biso   1.000  Hf
  Hf40     1.0000 0.87755  0.49970  0.74983  Biso   1.000  Hf
  Hf41     1.0000 0.50287  0.63496  0.96263  Biso   1.000  Hf
  Hf42     1.0000 0.49089  0.61229  0.46061  Biso   1.000  Hf
  Hf43     1.0000 0.50286  0.86505  0.53700  Biso   1.000  Hf
  Hf44     1.0000 0.49090  0.88772  0.03902  Biso   1.000  Hf
  Hf45     1.0000 0.74695  0.63496  0.53700  Biso   1.000  Hf
  Hf46     1.0000 0.75893  0.61229  0.03902  Biso   1.000  Hf
  Hf47     1.0000 0.74696  0.86505  0.96263  Biso   1.000  Hf
  Hf48     1.0000 0.75891  0.88772  0.46062  Biso   1.000  Hf
  Nb1      1.0000 0.12491  0.25001  0.24982  Biso   1.000  Nb
