data_image0
_cell_length_a       4.96716
_cell_length_b       10.3563
_cell_length_c       9.99429
_cell_angle_alpha    89.9325
_cell_angle_beta     89.9718
_cell_angle_gamma    90.0234

_symmetry_space_group_name_H-M    "P 1"
_symmetry_int_tables_number       1

loop_
  _symmetry_equiv_pos_as_xyz
  'x, y, z'

loop_
  _atom_site_label
  _atom_site_occupancy
  _atom_site_fract_x
  _atom_site_fract_y
  _atom_site_fract_z
  _atom_site_thermal_displace_type
  _atom_site_B_iso_or_equiv
  _atom_site_type_symbol
  Nb1      1.0000 0.27454  0.01834  0.12462  Biso   1.000  Nb
  Hf1      1.0000 0.26648  0.23292  0.37584  Biso   1.000  Hf
  Hf2      1.0000 0.73242  0.26652  0.12592  Biso   1.000  Hf
  Hf3      1.0000 0.73150  0.48372  0.37620  Biso   1.000  Hf
  Hf4      1.0000 0.07429  0.18252  0.19421  Biso   1.000  Hf
  Hf5      1.0000 0.06934  0.06677  0.44688  Biso   1.000  Hf
  Hf6      1.0000 0.92792  0.43367  0.19423  Biso   1.000  Hf
  Hf7      1.0000 0.92680  0.31601  0.44459  Biso   1.000  Hf
  Hf8      1.0000 0.54020  0.11835  0.24906  Biso   1.000  Hf
  Hf9      1.0000 0.54105  0.13212  0.49932  Biso   1.000  Hf
  Hf10     1.0000 0.45782  0.38205  0.50014  Biso   1.000  Hf
  Hf11     1.0000 0.45881  0.36817  0.25032  Biso   1.000  Hf
  Hf12     1.0000 0.26786  0.01637  0.62620  Biso   1.000  Hf
  Hf13     1.0000 0.26790  0.23306  0.87688  Biso   1.000  Hf
  Hf14     1.0000 0.73141  0.26610  0.62623  Biso   1.000  Hf
  Hf15     1.0000 0.73099  0.48338  0.87602  Biso   1.000  Hf
  Hf16     1.0000 0.07137  0.18362  0.69665  Biso   1.000  Hf
  Hf17     1.0000 0.07431  0.06464  0.94979  Biso   1.000  Hf
  Hf18     1.0000 0.92603  0.43428  0.69380  Biso   1.000  Hf
  Hf19     1.0000 0.92603  0.31486  0.94381  Biso   1.000  Hf
  Hf20     1.0000 0.54076  0.11737  0.75025  Biso   1.000  Hf
  Hf21     1.0000 0.54460  0.13056  0.99997  Biso   1.000  Hf
  Hf22     1.0000 0.45765  0.38142  0.00044  Biso   1.000  Hf
  Hf23     1.0000 0.45768  0.36725  0.75031  Biso   1.000  Hf
  Hf24     1.0000 0.26920  0.51688  0.12660  Biso   1.000  Hf
  Hf25     1.0000 0.26932  0.73435  0.37529  Biso   1.000  Hf
  Hf26     1.0000 0.73309  0.76810  0.12501  Biso   1.000  Hf
  Hf27     1.0000 0.73282  0.98394  0.37467  Biso   1.000  Hf
  Hf28     1.0000 0.07350  0.68486  0.19339  Biso   1.000  Hf
  Hf29     1.0000 0.07363  0.56617  0.44335  Biso   1.000  Hf
  Hf30     1.0000 0.93813  0.93585  0.19216  Biso   1.000  Hf
  Hf31     1.0000 0.92841  0.81651  0.44389  Biso   1.000  Hf
  Hf32     1.0000 0.54284  0.61889  0.24997  Biso   1.000  Hf
  Hf33     1.0000 0.54184  0.63253  0.49986  Biso   1.000  Hf
  Hf34     1.0000 0.45928  0.88278  0.49933  Biso   1.000  Hf
  Hf35     1.0000 0.46028  0.87007  0.24883  Biso   1.000  Hf
  Hf36     1.0000 0.26764  0.51633  0.62565  Biso   1.000  Hf
  Hf37     1.0000 0.26664  0.73268  0.87583  Biso   1.000  Hf
  Hf38     1.0000 0.73192  0.76678  0.62591  Biso   1.000  Hf
  Hf39     1.0000 0.73106  0.98288  0.87680  Biso   1.000  Hf
  Hf40     1.0000 0.07244  0.68419  0.69372  Biso   1.000  Hf
  Hf41     1.0000 0.07308  0.56474  0.94407  Biso   1.000  Hf
  Hf42     1.0000 0.92753  0.93432  0.69551  Biso   1.000  Hf
  Hf43     1.0000 0.92207  0.81458  0.94244  Biso   1.000  Hf
  Hf44     1.0000 0.54078  0.61752  0.74988  Biso   1.000  Hf
  Hf45     1.0000 0.54187  0.63184  0.00019  Biso   1.000  Hf
  Hf46     1.0000 0.44952  0.88164  0.00004  Biso   1.000  Hf
  Hf47     1.0000 0.45875  0.86744  0.75007  Biso   1.000  Hf
