data_image0
_cell_length_a       10.1152
_cell_length_b       10.3008
_cell_length_c       10.4592
_cell_angle_alpha    90.2582
_cell_angle_beta     80.3129
_cell_angle_gamma    90.1014

_symmetry_space_group_name_H-M    "P 1"
_symmetry_int_tables_number       1

loop_
  _symmetry_equiv_pos_as_xyz
  'x, y, z'

loop_
  _atom_site_label
  _atom_site_occupancy
  _atom_site_fract_x
  _atom_site_fract_y
  _atom_site_fract_z
  _atom_site_thermal_displace_type
  _atom_site_B_iso_or_equiv
  _atom_site_type_symbol
  Hf1      1.0000 0.13793  0.02323  0.14756  Biso   1.000  Hf
  Hf2      1.0000 0.14033  0.23134  0.39736  Biso   1.000  Hf
  Hf3      1.0000 0.36051  0.27564  0.10182  Biso   1.000  Hf
  Hf4      1.0000 0.35763  0.47658  0.34940  Biso   1.000  Hf
  O1       1.0000 0.03529  0.17075  0.08105  Biso   1.000  O
  O2       1.0000 0.03715  0.08125  0.33050  Biso   1.000  O
  O3       1.0000 0.45990  0.43000  0.16145  Biso   1.000  O
  O4       1.0000 0.47442  0.34258  0.42519  Biso   1.000  O
  O5       1.0000 0.28094  0.13135  0.24347  Biso   1.000  O
  O6       1.0000 0.27405  0.11411  0.49567  Biso   1.000  O
  O7       1.0000 0.22185  0.38156  0.00658  Biso   1.000  O
  O8       1.0000 0.21132  0.37654  0.25500  Biso   1.000  O
  Hf5      1.0000 0.13746  0.02022  0.64789  Biso   1.000  Hf
  Hf6      1.0000 0.13787  0.22919  0.89675  Biso   1.000  Hf
  Hf7      1.0000 0.35999  0.27171  0.60735  Biso   1.000  Hf
  Hf8      1.0000 0.36045  0.47927  0.85457  Biso   1.000  Hf
  O9       1.0000 0.03649  0.16993  0.58158  Biso   1.000  O
  O10      1.0000 0.03506  0.08046  0.83116  Biso   1.000  O
  O11      1.0000 0.46428  0.41836  0.67173  Biso   1.000  O
  O12      1.0000 0.46427  0.33125  0.91848  Biso   1.000  O
  O13      1.0000 0.27634  0.12983  0.74281  Biso   1.000  O
  O14      1.0000 0.27535  0.12203  0.99226  Biso   1.000  O
  O15      1.0000 0.22395  0.37801  0.51139  Biso   1.000  O
  O16      1.0000 0.22293  0.37087  0.75938  Biso   1.000  O
  Hf9      1.0000 0.13722  0.52294  0.14419  Biso   1.000  Hf
  Hf10     1.0000 0.13746  0.72710  0.39663  Biso   1.000  Hf
  Hf11     1.0000 0.36024  0.77181  0.10410  Biso   1.000  Hf
  Hf12     1.0000 0.35931  0.96898  0.35808  Biso   1.000  Hf
  O17      1.0000 0.03453  0.67265  0.08028  Biso   1.000  O
  O18      1.0000 0.03359  0.58244  0.32911  Biso   1.000  O
  O19      1.0000 0.46280  0.91988  0.17199  Biso   1.000  O
  O20      1.0000 0.46322  0.82574  0.42147  Biso   1.000  O
  O21      1.0000 0.27501  0.63081  0.24051  Biso   1.000  O
  O22      1.0000 0.27455  0.61839  0.49037  Biso   1.000  O
  O23      1.0000 0.22271  0.88070  0.01073  Biso   1.000  O
  O24      1.0000 0.22152  0.87059  0.26055  Biso   1.000  O
  Hf13     1.0000 0.13835  0.52186  0.64608  Biso   1.000  Hf
  Hf14     1.0000 0.13739  0.72989  0.89671  Biso   1.000  Hf
  Hf15     1.0000 0.36094  0.76897  0.60579  Biso   1.000  Hf
  Hf16     1.0000 0.36024  0.97930  0.85533  Biso   1.000  Hf
  O25      1.0000 0.03394  0.66843  0.58052  Biso   1.000  O
  O26      1.0000 0.03567  0.58103  0.83103  Biso   1.000  O
  O27      1.0000 0.46294  0.91883  0.67009  Biso   1.000  O
  O28      1.0000 0.46330  0.83171  0.92008  Biso   1.000  O
  O29      1.0000 0.27607  0.62879  0.74109  Biso   1.000  O
  O30      1.0000 0.27585  0.62270  0.99037  Biso   1.000  O
  O31      1.0000 0.22213  0.87485  0.51182  Biso   1.000  O
  O32      1.0000 0.22279  0.87098  0.76075  Biso   1.000  O
  Hf17     1.0000 0.63870  0.02128  0.14572  Biso   1.000  Hf
  Hf18     1.0000 0.64653  0.22903  0.39865  Biso   1.000  Hf
  Hf19     1.0000 0.86005  0.27237  0.10417  Biso   1.000  Hf
  Hf20     1.0000 0.86150  0.47866  0.35377  Biso   1.000  Hf
  O33      1.0000 0.53495  0.16860  0.07937  Biso   1.000  O
  O34      1.0000 0.54075  0.07208  0.33715  Biso   1.000  O
  O35      1.0000 0.96132  0.42241  0.16758  Biso   1.000  O
  O36      1.0000 0.96407  0.33186  0.42057  Biso   1.000  O
  O37      1.0000 0.77701  0.12958  0.24051  Biso   1.000  O
  O38      1.0000 0.77930  0.11982  0.49200  Biso   1.000  O
  O39      1.0000 0.72245  0.37992  0.00997  Biso   1.000  O
  O40      1.0000 0.72316  0.37132  0.25973  Biso   1.000  O
  Hf21     1.0000 0.63762  0.02130  0.64597  Biso   1.000  Hf
  Hf22     1.0000 0.63853  0.22888  0.89601  Biso   1.000  Hf
  Hf23     1.0000 0.86267  0.27141  0.60577  Biso   1.000  Hf
  Hf24     1.0000 0.86070  0.47906  0.85511  Biso   1.000  Hf
  O41      1.0000 0.53574  0.16954  0.57997  Biso   1.000  O
  O42      1.0000 0.53512  0.08096  0.82994  Biso   1.000  O
  O43      1.0000 0.96409  0.41993  0.67087  Biso   1.000  O
  O44      1.0000 0.96288  0.33037  0.91936  Biso   1.000  O
  O45      1.0000 0.77579  0.12934  0.74113  Biso   1.000  O
  O46      1.0000 0.77588  0.12151  0.99088  Biso   1.000  O
  O47      1.0000 0.72504  0.37840  0.51115  Biso   1.000  O
  O48      1.0000 0.72358  0.37116  0.76034  Biso   1.000  O
  Hf25     1.0000 0.63787  0.52358  0.14547  Biso   1.000  Hf
  Hf26     1.0000 0.63916  0.72651  0.39572  Biso   1.000  Hf
  Hf27     1.0000 0.86001  0.77231  0.10434  Biso   1.000  Hf
  Hf28     1.0000 0.86201  0.97808  0.35444  Biso   1.000  Hf
  O49      1.0000 0.53679  0.67352  0.08032  Biso   1.000  O
  O50      1.0000 0.53420  0.58136  0.32844  Biso   1.000  O
  O51      1.0000 0.96423  0.92124  0.16908  Biso   1.000  O
  O52      1.0000 0.96350  0.83085  0.42034  Biso   1.000  O
  O53      1.0000 0.77626  0.63012  0.24077  Biso   1.000  O
  O54      1.0000 0.77585  0.62003  0.49070  Biso   1.000  O
  O55      1.0000 0.72252  0.88066  0.00990  Biso   1.000  O
  O56      1.0000 0.72347  0.87097  0.25980  Biso   1.000  O
  Hf29     1.0000 0.63895  0.52102  0.64680  Biso   1.000  Hf
  Hf30     1.0000 0.63792  0.72950  0.89598  Biso   1.000  Hf
  Hf31     1.0000 0.85978  0.77138  0.60441  Biso   1.000  Hf
  Hf32     1.0000 0.85994  0.97914  0.85448  Biso   1.000  Hf
  O57      1.0000 0.53585  0.66766  0.58077  Biso   1.000  O
  O58      1.0000 0.53534  0.58140  0.83077  Biso   1.000  O
  O59      1.0000 0.96267  0.91941  0.66995  Biso   1.000  O
  O60      1.0000 0.96254  0.83132  0.91951  Biso   1.000  O
  O61      1.0000 0.77618  0.62939  0.74089  Biso   1.000  O
  O62      1.0000 0.77587  0.62209  0.99064  Biso   1.000  O
  O63      1.0000 0.72262  0.87877  0.50970  Biso   1.000  O
  O64      1.0000 0.72219  0.87124  0.75974  Biso   1.000  O
  Ni1      1.0000 0.41059  0.21424  0.32826  Biso   1.000  Ni
