data_image0
_cell_length_a       10.0528
_cell_length_b       10.3294
_cell_length_c       5.07735
_cell_angle_alpha    90.5125
_cell_angle_beta     90.3755
_cell_angle_gamma    90.167

_symmetry_space_group_name_H-M    "P 1"
_symmetry_int_tables_number       1

loop_
  _symmetry_equiv_pos_as_xyz
  'x, y, z'

loop_
  _atom_site_label
  _atom_site_occupancy
  _atom_site_fract_x
  _atom_site_fract_y
  _atom_site_fract_z
  _atom_site_thermal_displace_type
  _atom_site_B_iso_or_equiv
  _atom_site_type_symbol
  Hf1      1.0000 0.13454  0.96771  0.24153  Biso   1.000  Hf
  Hf2      1.0000 0.13715  0.23152  0.67390  Biso   1.000  Hf
  Hf3      1.0000 0.40108  0.26106  0.25156  Biso   1.000  Hf
  Hf4      1.0000 0.39004  0.00553  0.69944  Biso   1.000  Hf
  Hf5      1.0000 0.99368  0.16458  0.95046  Biso   1.000  Hf
  Hf6      1.0000 0.00472  0.09357  0.47072  Biso   1.000  Hf
  Hf7      1.0000 0.99243  0.36116  0.54722  Biso   1.000  Hf
  Hf8      1.0000 0.00081  0.40407  0.05459  Biso   1.000  Hf
  Hf9      1.0000 0.26350  0.12881  0.42385  Biso   1.000  Hf
  Hf10     1.0000 0.22942  0.05858  0.90758  Biso   1.000  Hf
  Hf11     1.0000 0.27495  0.31734  0.93953  Biso   1.000  Hf
  Hf12     1.0000 0.25183  0.38528  0.47732  Biso   1.000  Hf
  Hf13     1.0000 0.11000  0.50572  0.31054  Biso   1.000  Hf
  Hf14     1.0000 0.10400  0.75454  0.75228  Biso   1.000  Hf
  Hf15     1.0000 0.35919  0.72484  0.29049  Biso   1.000  Hf
  Hf16     1.0000 0.36801  0.48522  0.77686  Biso   1.000  Hf
  Hf17     1.0000 0.00110  0.65084  0.04081  Biso   1.000  Hf
  Hf18     1.0000 0.98677  0.60963  0.54751  Biso   1.000  Hf
  Hf19     1.0000 0.00340  0.84891  0.46769  Biso   1.000  Hf
  Hf20     1.0000 0.99028  0.90309  0.97273  Biso   1.000  Hf
  Hf21     1.0000 0.24052  0.63169  0.57239  Biso   1.000  Hf
  Hf22     1.0000 0.26363  0.56470  0.08406  Biso   1.000  Hf
  Hf23     1.0000 0.22926  0.81314  0.04853  Biso   1.000  Hf
  Hf24     1.0000 0.25389  0.87673  0.52518  Biso   1.000  Hf
  Hf25     1.0000 0.61349  0.99763  0.20242  Biso   1.000  Hf
  Hf26     1.0000 0.63959  0.27077  0.77922  Biso   1.000  Hf
  Hf27     1.0000 0.89314  0.24909  0.24967  Biso   1.000  Hf
  Hf28     1.0000 0.86643  0.02086  0.73716  Biso   1.000  Hf
  Hf29     1.0000 0.49687  0.14611  0.96917  Biso   1.000  Hf
  Hf30     1.0000 0.51616  0.11156  0.46586  Biso   1.000  Hf
  Hf31     1.0000 0.49623  0.35420  0.54813  Biso   1.000  Hf
  Hf32     1.0000 0.50861  0.40272  0.04064  Biso   1.000  Hf
  Hf33     1.0000 0.77384  0.18314  0.55119  Biso   1.000  Hf
  Hf34     1.0000 0.75012  0.11778  0.02444  Biso   1.000  Hf
  Hf35     1.0000 0.75503  0.36859  0.06130  Biso   1.000  Hf
  Hf36     1.0000 0.73239  0.43310  0.57415  Biso   1.000  Hf
  Hf37     1.0000 0.63372  0.52012  0.27223  Biso   1.000  Hf
  Hf38     1.0000 0.60362  0.74670  0.75621  Biso   1.000  Hf
  Hf39     1.0000 0.85756  0.77297  0.22275  Biso   1.000  Hf
  Hf40     1.0000 0.88365  0.50036  0.80574  Biso   1.000  Hf
  Hf41     1.0000 0.49750  0.64897  0.02855  Biso   1.000  Hf
  Hf42     1.0000 0.49008  0.60056  0.52911  Biso   1.000  Hf
  Hf43     1.0000 0.50426  0.85575  0.46259  Biso   1.000  Hf
  Hf44     1.0000 0.49003  0.89537  0.95700  Biso   1.000  Hf
  Hf45     1.0000 0.72749  0.68276  0.46218  Biso   1.000  Hf
  Hf46     1.0000 0.74649  0.61988  0.98776  Biso   1.000  Hf
  Hf47     1.0000 0.74051  0.86792  0.94405  Biso   1.000  Hf
  Hf48     1.0000 0.76577  0.93348  0.43162  Biso   1.000  Hf
  Ni1      1.0000 0.15498  0.19982  0.14978  Biso   1.000  Ni
