data_image0
_cell_length_a       10.1245
_cell_length_b       5.16295
_cell_length_c       10.4789
_cell_angle_alpha    90.4879
_cell_angle_beta     80.2692
_cell_angle_gamma    90.1893

_symmetry_space_group_name_H-M    "P 1"
_symmetry_int_tables_number       1

loop_
  _symmetry_equiv_pos_as_xyz
  'x, y, z'

loop_
  _atom_site_label
  _atom_site_occupancy
  _atom_site_fract_x
  _atom_site_fract_y
  _atom_site_fract_z
  _atom_site_thermal_displace_type
  _atom_site_B_iso_or_equiv
  _atom_site_type_symbol
  Hf1      1.0000 0.13624  0.04902  0.14581  Biso   1.000  Hf
  Hf2      1.0000 0.13897  0.45962  0.39809  Biso   1.000  Hf
  Hf3      1.0000 0.36008  0.55205  0.10216  Biso   1.000  Hf
  Hf4      1.0000 0.35533  0.93249  0.35291  Biso   1.000  Hf
  O1       1.0000 0.03364  0.34662  0.08055  Biso   1.000  O
  O2       1.0000 0.03448  0.16741  0.32883  Biso   1.000  O
  O3       1.0000 0.45902  0.86072  0.16390  Biso   1.000  O
  O4       1.0000 0.47362  0.67637  0.42756  Biso   1.000  O
  O5       1.0000 0.27896  0.26437  0.24298  Biso   1.000  O
  O6       1.0000 0.27220  0.22347  0.49486  Biso   1.000  O
  O7       1.0000 0.22142  0.76575  0.00811  Biso   1.000  O
  O8       1.0000 0.20971  0.75316  0.25622  Biso   1.000  O
  Hf5      1.0000 0.13702  0.04159  0.64817  Biso   1.000  Hf
  Hf6      1.0000 0.13657  0.46096  0.89767  Biso   1.000  Hf
  Hf7      1.0000 0.35975  0.53952  0.60917  Biso   1.000  Hf
  Hf8      1.0000 0.35967  0.96002  0.85592  Biso   1.000  Hf
  O9       1.0000 0.03435  0.33696  0.58135  Biso   1.000  O
  O10      1.0000 0.03462  0.16305  0.83152  Biso   1.000  O
  O11      1.0000 0.46354  0.83478  0.67268  Biso   1.000  O
  O12      1.0000 0.46383  0.66578  0.91939  Biso   1.000  O
  O13      1.0000 0.27573  0.25914  0.74318  Biso   1.000  O
  O14      1.0000 0.27456  0.24769  0.99203  Biso   1.000  O
  O15      1.0000 0.22244  0.74784  0.51434  Biso   1.000  O
  O16      1.0000 0.22262  0.74237  0.76098  Biso   1.000  O
  Hf9      1.0000 0.63793  0.04676  0.14505  Biso   1.000  Hf
  Hf10     1.0000 0.64651  0.45465  0.39848  Biso   1.000  Hf
  Hf11     1.0000 0.85907  0.54640  0.10432  Biso   1.000  Hf
  Hf12     1.0000 0.86253  0.95656  0.35405  Biso   1.000  Hf
  O17      1.0000 0.53605  0.34507  0.07913  Biso   1.000  O
  O18      1.0000 0.53894  0.14632  0.33458  Biso   1.000  O
  O19      1.0000 0.96168  0.84708  0.16745  Biso   1.000  O
  O20      1.0000 0.96382  0.66549  0.42168  Biso   1.000  O
  O21      1.0000 0.77647  0.26122  0.24059  Biso   1.000  O
  O22      1.0000 0.77828  0.23849  0.49196  Biso   1.000  O
  O23      1.0000 0.72191  0.76281  0.01038  Biso   1.000  O
  O24      1.0000 0.72336  0.74299  0.26024  Biso   1.000  O
  Hf13     1.0000 0.63773  0.04213  0.64690  Biso   1.000  Hf
  Hf14     1.0000 0.63770  0.45974  0.89602  Biso   1.000  Hf
  Hf15     1.0000 0.86145  0.54297  0.60597  Biso   1.000  Hf
  Hf16     1.0000 0.85972  0.95925  0.85537  Biso   1.000  Hf
  O25      1.0000 0.53529  0.33464  0.57996  Biso   1.000  O
  O26      1.0000 0.53440  0.16471  0.83005  Biso   1.000  O
  O27      1.0000 0.96305  0.83884  0.67157  Biso   1.000  O
  O28      1.0000 0.96182  0.66342  0.91962  Biso   1.000  O
  O29      1.0000 0.77531  0.25920  0.74126  Biso   1.000  O
  O30      1.0000 0.77520  0.24553  0.99073  Biso   1.000  O
  O31      1.0000 0.72430  0.75599  0.51139  Biso   1.000  O
  O32      1.0000 0.72260  0.74332  0.76064  Biso   1.000  O
  Ni1      1.0000 0.40781  0.42559  0.32921  Biso   1.000  Ni
