data_image0
_cell_length_a       9.99826
_cell_length_b       5.20378
_cell_length_c       10.0462
_cell_angle_alpha    89.9145
_cell_angle_beta     89.3673
_cell_angle_gamma    90.0388

_symmetry_space_group_name_H-M    "P 1"
_symmetry_int_tables_number       1

loop_
  _symmetry_equiv_pos_as_xyz
  'x, y, z'

loop_
  _atom_site_label
  _atom_site_occupancy
  _atom_site_fract_x
  _atom_site_fract_y
  _atom_site_fract_z
  _atom_site_thermal_displace_type
  _atom_site_B_iso_or_equiv
  _atom_site_type_symbol
  Hf1      1.0000 0.13613  0.07055  0.12319  Biso   1.000  Hf
  Hf2      1.0000 0.13891  0.46490  0.38678  Biso   1.000  Hf
  Hf3      1.0000 0.36919  0.53113  0.12651  Biso   1.000  Hf
  Hf4      1.0000 0.36837  0.96592  0.37852  Biso   1.000  Hf
  Hf5      1.0000 0.01673  0.34565  0.21852  Biso   1.000  Hf
  Hf6      1.0000 0.03914  0.12868  0.44980  Biso   1.000  Hf
  Hf7      1.0000 0.46498  0.86552  0.19560  Biso   1.000  Hf
  Hf8      1.0000 0.46687  0.63209  0.44663  Biso   1.000  Hf
  Hf9      1.0000 0.27251  0.24212  0.25461  Biso   1.000  Hf
  Hf10     1.0000 0.27441  0.26129  0.50374  Biso   1.000  Hf
  Hf11     1.0000 0.23285  0.76267  0.50539  Biso   1.000  Hf
  Hf12     1.0000 0.23524  0.74219  0.25808  Biso   1.000  Hf
  Hf13     1.0000 0.13513  0.03062  0.62920  Biso   1.000  Hf
  Hf14     1.0000 0.13326  0.46098  0.87539  Biso   1.000  Hf
  Hf15     1.0000 0.36821  0.53231  0.62850  Biso   1.000  Hf
  Hf16     1.0000 0.36816  0.96218  0.87529  Biso   1.000  Hf
  Hf17     1.0000 0.03752  0.36828  0.69233  Biso   1.000  Hf
  Hf18     1.0000 0.03646  0.12550  0.94291  Biso   1.000  Hf
  Hf19     1.0000 0.46554  0.86829  0.69358  Biso   1.000  Hf
  Hf20     1.0000 0.46401  0.63008  0.94393  Biso   1.000  Hf
  Hf21     1.0000 0.27045  0.23306  0.75107  Biso   1.000  Hf
  Hf22     1.0000 0.28256  0.25138  0.99590  Biso   1.000  Hf
  Hf23     1.0000 0.22498  0.75829  0.00481  Biso   1.000  Hf
  Hf24     1.0000 0.23139  0.73376  0.75343  Biso   1.000  Hf
  Hf25     1.0000 0.63265  0.02977  0.12498  Biso   1.000  Hf
  Hf26     1.0000 0.63583  0.46554  0.37540  Biso   1.000  Hf
  Hf27     1.0000 0.85566  0.52818  0.11875  Biso   1.000  Hf
  Hf28     1.0000 0.87130  0.96843  0.37259  Biso   1.000  Hf
  Hf29     1.0000 0.53676  0.36519  0.19470  Biso   1.000  Hf
  Hf30     1.0000 0.53862  0.13140  0.44393  Biso   1.000  Hf
  Hf31     1.0000 0.96664  0.85966  0.18783  Biso   1.000  Hf
  Hf32     1.0000 0.96834  0.63775  0.44616  Biso   1.000  Hf
  Hf33     1.0000 0.76673  0.22747  0.24734  Biso   1.000  Hf
  Hf34     1.0000 0.77341  0.26792  0.49674  Biso   1.000  Hf
  Hf35     1.0000 0.73376  0.76783  0.49659  Biso   1.000  Hf
  Hf36     1.0000 0.73062  0.73276  0.24813  Biso   1.000  Hf
  Hf37     1.0000 0.63630  0.03175  0.62308  Biso   1.000  Hf
  Hf38     1.0000 0.63363  0.46261  0.87265  Biso   1.000  Hf
  Hf39     1.0000 0.86796  0.53391  0.62489  Biso   1.000  Hf
  Hf40     1.0000 0.86480  0.96310  0.87216  Biso   1.000  Hf
  Hf41     1.0000 0.53716  0.36605  0.69365  Biso   1.000  Hf
  Hf42     1.0000 0.53835  0.12757  0.94163  Biso   1.000  Hf
  Hf43     1.0000 0.96367  0.86927  0.69277  Biso   1.000  Hf
  Hf44     1.0000 0.95175  0.62282  0.92752  Biso   1.000  Hf
  Hf45     1.0000 0.77066  0.23407  0.74645  Biso   1.000  Hf
  Hf46     1.0000 0.76861  0.25814  0.99665  Biso   1.000  Hf
  Hf47     1.0000 0.72533  0.75958  0.99812  Biso   1.000  Hf
  Hf48     1.0000 0.72804  0.73537  0.74661  Biso   1.000  Hf
  Ni1      1.0000 0.10568  0.58873  0.12370  Biso   1.000  Ni
