data_image0
_cell_length_a       10.0328
_cell_length_b       10.6299
_cell_length_c       5.02424
_cell_angle_alpha    89.8438
_cell_angle_beta     90.1631
_cell_angle_gamma    90.5463

_symmetry_space_group_name_H-M    "P 1"
_symmetry_int_tables_number       1

loop_
  _symmetry_equiv_pos_as_xyz
  'x, y, z'

loop_
  _atom_site_label
  _atom_site_occupancy
  _atom_site_fract_x
  _atom_site_fract_y
  _atom_site_fract_z
  _atom_site_thermal_displace_type
  _atom_site_B_iso_or_equiv
  _atom_site_type_symbol
  Hf1      1.0000 0.13670  0.00958  0.24121  Biso   1.000  Hf
  Hf2      1.0000 0.13996  0.20650  0.75317  Biso   1.000  Hf
  Hf3      1.0000 0.37106  0.26105  0.23276  Biso   1.000  Hf
  Hf4      1.0000 0.36988  0.48542  0.73957  Biso   1.000  Hf
  Hf5      1.0000 0.01181  0.17158  0.42474  Biso   1.000  Hf
  Hf6      1.0000 0.03175  0.05736  0.90408  Biso   1.000  Hf
  Hf7      1.0000 0.47267  0.42822  0.39991  Biso   1.000  Hf
  Hf8      1.0000 0.46941  0.31686  0.89047  Biso   1.000  Hf
  Hf9      1.0000 0.26519  0.09799  0.49338  Biso   1.000  Hf
  Hf10     1.0000 0.29242  0.11596  0.97983  Biso   1.000  Hf
  Hf11     1.0000 0.25325  0.41834  0.04666  Biso   1.000  Hf
  Hf12     1.0000 0.24926  0.34151  0.54317  Biso   1.000  Hf
  Hf13     1.0000 0.12352  0.54716  0.22640  Biso   1.000  Hf
  Hf14     1.0000 0.13057  0.74387  0.74170  Biso   1.000  Hf
  Hf15     1.0000 0.37010  0.76313  0.24404  Biso   1.000  Hf
  Hf16     1.0000 0.37199  0.97646  0.74267  Biso   1.000  Hf
  Hf17     1.0000 0.02760  0.69602  0.39336  Biso   1.000  Hf
  Hf18     1.0000 0.02958  0.57618  0.87417  Biso   1.000  Hf
  Hf19     1.0000 0.46888  0.92707  0.38074  Biso   1.000  Hf
  Hf20     1.0000 0.46907  0.81426  0.88906  Biso   1.000  Hf
  Hf21     1.0000 0.26790  0.61307  0.49091  Biso   1.000  Hf
  Hf22     1.0000 0.26502  0.65084  0.98191  Biso   1.000  Hf
  Hf23     1.0000 0.23056  0.88452  0.98948  Biso   1.000  Hf
  Hf24     1.0000 0.23553  0.85910  0.48677  Biso   1.000  Hf
  Hf25     1.0000 0.63197  0.01401  0.24461  Biso   1.000  Hf
  Hf26     1.0000 0.62922  0.22904  0.74492  Biso   1.000  Hf
  Hf27     1.0000 0.85238  0.26457  0.25088  Biso   1.000  Hf
  Hf28     1.0000 0.86375  0.48500  0.74994  Biso   1.000  Hf
  Hf29     1.0000 0.53174  0.17428  0.39589  Biso   1.000  Hf
  Hf30     1.0000 0.54130  0.06160  0.88394  Biso   1.000  Hf
  Hf31     1.0000 0.95721  0.44516  0.39718  Biso   1.000  Hf
  Hf32     1.0000 0.98031  0.31609  0.91620  Biso   1.000  Hf
  Hf33     1.0000 0.76360  0.11207  0.49493  Biso   1.000  Hf
  Hf34     1.0000 0.76990  0.13537  0.99248  Biso   1.000  Hf
  Hf35     1.0000 0.73191  0.38388  0.00105  Biso   1.000  Hf
  Hf36     1.0000 0.72968  0.36288  0.50614  Biso   1.000  Hf
  Hf37     1.0000 0.63332  0.51458  0.25167  Biso   1.000  Hf
  Hf38     1.0000 0.63428  0.73112  0.75000  Biso   1.000  Hf
  Hf39     1.0000 0.86108  0.77061  0.24717  Biso   1.000  Hf
  Hf40     1.0000 0.86361  0.98304  0.74461  Biso   1.000  Hf
  Hf41     1.0000 0.53371  0.67837  0.39674  Biso   1.000  Hf
  Hf42     1.0000 0.53280  0.56753  0.90076  Biso   1.000  Hf
  Hf43     1.0000 0.96717  0.93225  0.40038  Biso   1.000  Hf
  Hf44     1.0000 0.96308  0.81923  0.89644  Biso   1.000  Hf
  Hf45     1.0000 0.76613  0.61418  0.50502  Biso   1.000  Hf
  Hf46     1.0000 0.76799  0.63498  0.00224  Biso   1.000  Hf
  Hf47     1.0000 0.73093  0.88453  0.99708  Biso   1.000  Hf
  Hf48     1.0000 0.72959  0.86409  0.49865  Biso   1.000  Hf
  Os1      1.0000 0.11490  0.31064  0.23439  Biso   1.000  Os
