data_image0
_cell_length_a       9.94364
_cell_length_b       5.1638
_cell_length_c       9.977
_cell_angle_alpha    89.7603
_cell_angle_beta     89.9482
_cell_angle_gamma    90.066

_symmetry_space_group_name_H-M    "P 1"
_symmetry_int_tables_number       1

loop_
  _symmetry_equiv_pos_as_xyz
  'x, y, z'

loop_
  _atom_site_label
  _atom_site_occupancy
  _atom_site_fract_x
  _atom_site_fract_y
  _atom_site_fract_z
  _atom_site_thermal_displace_type
  _atom_site_B_iso_or_equiv
  _atom_site_type_symbol
  Os1      1.0000 0.13885  0.04157  0.12074  Biso   1.000  Os
  Hf1      1.0000 0.13171  0.46758  0.37395  Biso   1.000  Hf
  Hf2      1.0000 0.36478  0.53937  0.12652  Biso   1.000  Hf
  Hf3      1.0000 0.36459  0.96947  0.37490  Biso   1.000  Hf
  Hf4      1.0000 0.03557  0.35267  0.19736  Biso   1.000  Hf
  Hf5      1.0000 0.03395  0.13782  0.45085  Biso   1.000  Hf
  Hf6      1.0000 0.46460  0.86864  0.19461  Biso   1.000  Hf
  Hf7      1.0000 0.46265  0.63326  0.44192  Biso   1.000  Hf
  Hf8      1.0000 0.26789  0.23845  0.24584  Biso   1.000  Hf
  Hf9      1.0000 0.27018  0.26651  0.49772  Biso   1.000  Hf
  Hf10     1.0000 0.22927  0.76587  0.49982  Biso   1.000  Hf
  Hf11     1.0000 0.22557  0.74913  0.24799  Biso   1.000  Hf
  Hf12     1.0000 0.13394  0.03265  0.62666  Biso   1.000  Hf
  Hf13     1.0000 0.13439  0.46589  0.87823  Biso   1.000  Hf
  Hf14     1.0000 0.36607  0.53310  0.62492  Biso   1.000  Hf
  Hf15     1.0000 0.36572  0.96473  0.87605  Biso   1.000  Hf
  Hf16     1.0000 0.03361  0.36237  0.70180  Biso   1.000  Hf
  Hf17     1.0000 0.03568  0.12949  0.95937  Biso   1.000  Hf
  Hf18     1.0000 0.46292  0.86931  0.69292  Biso   1.000  Hf
  Hf19     1.0000 0.45980  0.62595  0.94329  Biso   1.000  Hf
  Hf20     1.0000 0.27058  0.23540  0.75016  Biso   1.000  Hf
  Hf21     1.0000 0.27280  0.25396  0.00123  Biso   1.000  Hf
  Hf22     1.0000 0.22439  0.76212  0.00235  Biso   1.000  Hf
  Hf23     1.0000 0.22950  0.73244  0.75114  Biso   1.000  Hf
  Hf24     1.0000 0.63488  0.03415  0.12566  Biso   1.000  Hf
  Hf25     1.0000 0.63466  0.47000  0.37431  Biso   1.000  Hf
  Hf26     1.0000 0.87048  0.53281  0.12486  Biso   1.000  Hf
  Hf27     1.0000 0.86983  0.97081  0.37265  Biso   1.000  Hf
  Hf28     1.0000 0.53559  0.36993  0.19292  Biso   1.000  Hf
  Hf29     1.0000 0.53567  0.13424  0.44302  Biso   1.000  Hf
  Hf30     1.0000 0.97282  0.86191  0.19355  Biso   1.000  Hf
  Hf31     1.0000 0.96508  0.63475  0.44690  Biso   1.000  Hf
  Hf32     1.0000 0.76964  0.23676  0.24918  Biso   1.000  Hf
  Hf33     1.0000 0.77042  0.26766  0.49882  Biso   1.000  Hf
  Hf34     1.0000 0.73038  0.76775  0.49772  Biso   1.000  Hf
  Hf35     1.0000 0.73414  0.73705  0.24751  Biso   1.000  Hf
  Hf36     1.0000 0.63408  0.03328  0.62401  Biso   1.000  Hf
  Hf37     1.0000 0.63351  0.46566  0.87548  Biso   1.000  Hf
  Hf38     1.0000 0.86599  0.53248  0.62629  Biso   1.000  Hf
  Hf39     1.0000 0.86540  0.96624  0.87669  Biso   1.000  Hf
  Hf40     1.0000 0.53668  0.37003  0.69296  Biso   1.000  Hf
  Hf41     1.0000 0.53729  0.12720  0.94234  Biso   1.000  Hf
  Hf42     1.0000 0.96498  0.86624  0.69733  Biso   1.000  Hf
  Hf43     1.0000 0.96235  0.62809  0.94198  Biso   1.000  Hf
  Hf44     1.0000 0.76973  0.23408  0.74959  Biso   1.000  Hf
  Hf45     1.0000 0.77083  0.26432  0.99915  Biso   1.000  Hf
  Hf46     1.0000 0.72852  0.76336  0.99846  Biso   1.000  Hf
  Hf47     1.0000 0.72936  0.73558  0.74906  Biso   1.000  Hf
