data_image0
_cell_length_a       10.0874
_cell_length_b       5.21146
_cell_length_c       10.0871
_cell_angle_alpha    90.0087
_cell_angle_beta     88.8899
_cell_angle_gamma    90.0133

_symmetry_space_group_name_H-M    "P 1"
_symmetry_int_tables_number       1

loop_
  _symmetry_equiv_pos_as_xyz
  'x, y, z'

loop_
  _atom_site_label
  _atom_site_occupancy
  _atom_site_fract_x
  _atom_site_fract_y
  _atom_site_fract_z
  _atom_site_thermal_displace_type
  _atom_site_B_iso_or_equiv
  _atom_site_type_symbol
  Hf1      1.0000 0.11870  0.86103  0.13028  Biso   1.000  Hf
  Hf2      1.0000 0.12759  0.51626  0.37902  Biso   1.000  Hf
  Hf3      1.0000 0.39496  0.51046  0.13557  Biso   1.000  Hf
  Hf4      1.0000 0.38232  0.02058  0.37932  Biso   1.000  Hf
  Hf5      1.0000 0.98465  0.31678  0.98159  Biso   1.000  Hf
  Hf6      1.0000 0.01386  0.15086  0.23615  Biso   1.000  Hf
  Hf7      1.0000 0.97044  0.69315  0.27850  Biso   1.000  Hf
  Hf8      1.0000 0.98431  0.80707  0.98822  Biso   1.000  Hf
  Hf9      1.0000 0.26740  0.31658  0.26406  Biso   1.000  Hf
  Hf10     1.0000 0.24319  0.06715  0.00466  Biso   1.000  Hf
  Hf11     1.0000 0.25115  0.59126  0.99769  Biso   1.000  Hf
  Hf12     1.0000 0.26138  0.80667  0.26391  Biso   1.000  Hf
  Hf13     1.0000 0.12897  0.00145  0.62425  Biso   1.000  Hf
  Hf14     1.0000 0.11348  0.50973  0.85390  Biso   1.000  Hf
  Hf15     1.0000 0.37510  0.51046  0.62616  Biso   1.000  Hf
  Hf16     1.0000 0.38030  0.00491  0.86849  Biso   1.000  Hf
  Hf17     1.0000 0.99316  0.30708  0.48786  Biso   1.000  Hf
  Hf18     1.0000 0.00146  0.22134  0.73926  Biso   1.000  Hf
  Hf19     1.0000 0.98966  0.72430  0.74338  Biso   1.000  Hf
  Hf20     1.0000 0.00318  0.81416  0.50373  Biso   1.000  Hf
  Hf21     1.0000 0.25489  0.29669  0.75572  Biso   1.000  Hf
  Hf22     1.0000 0.25082  0.21598  0.50547  Biso   1.000  Hf
  Hf23     1.0000 0.25117  0.71526  0.50743  Biso   1.000  Hf
  Hf24     1.0000 0.24201  0.79923  0.75527  Biso   1.000  Hf
  Hf25     1.0000 0.62465  0.00158  0.11989  Biso   1.000  Hf
  Hf26     1.0000 0.63446  0.51394  0.37343  Biso   1.000  Hf
  Hf27     1.0000 0.86964  0.51734  0.12100  Biso   1.000  Hf
  Hf28     1.0000 0.87804  0.01188  0.37098  Biso   1.000  Hf
  Hf29     1.0000 0.49274  0.29693  0.99384  Biso   1.000  Hf
  Hf30     1.0000 0.50977  0.22177  0.24732  Biso   1.000  Hf
  Hf31     1.0000 0.50598  0.72465  0.25928  Biso   1.000  Hf
  Hf32     1.0000 0.49323  0.79977  0.00700  Biso   1.000  Hf
  Hf33     1.0000 0.76143  0.30700  0.25553  Biso   1.000  Hf
  Hf34     1.0000 0.74319  0.21627  0.99794  Biso   1.000  Hf
  Hf35     1.0000 0.74098  0.71547  0.99741  Biso   1.000  Hf
  Hf36     1.0000 0.74552  0.81425  0.24528  Biso   1.000  Hf
  Hf37     1.0000 0.62695  0.01911  0.62193  Biso   1.000  Hf
  Hf38     1.0000 0.62239  0.51004  0.87361  Biso   1.000  Hf
  Hf39     1.0000 0.87523  0.51451  0.61461  Biso   1.000  Hf
  Hf40     1.0000 0.86949  0.02051  0.86660  Biso   1.000  Hf
  Hf41     1.0000 0.49835  0.32325  0.49429  Biso   1.000  Hf
  Hf42     1.0000 0.50380  0.21995  0.74491  Biso   1.000  Hf
  Hf43     1.0000 0.49073  0.71119  0.75814  Biso   1.000  Hf
  Hf44     1.0000 0.49947  0.82027  0.50876  Biso   1.000  Hf
  Hf45     1.0000 0.75436  0.32293  0.75045  Biso   1.000  Hf
  Hf46     1.0000 0.74747  0.22369  0.50123  Biso   1.000  Hf
  Hf47     1.0000 0.75291  0.72389  0.49577  Biso   1.000  Hf
  Hf48     1.0000 0.74037  0.81995  0.74898  Biso   1.000  Hf
  Os1      1.0000 0.13368  0.35705  0.11520  Biso   1.000  Os
