data_image0
_cell_length_a       9.99912
_cell_length_b       5.09425
_cell_length_c       10.4537
_cell_angle_alpha    89.8525
_cell_angle_beta     89.7941
_cell_angle_gamma    90.0288

_symmetry_space_group_name_H-M    "P 1"
_symmetry_int_tables_number       1

loop_
  _symmetry_equiv_pos_as_xyz
  'x, y, z'

loop_
  _atom_site_label
  _atom_site_occupancy
  _atom_site_fract_x
  _atom_site_fract_y
  _atom_site_fract_z
  _atom_site_thermal_displace_type
  _atom_site_B_iso_or_equiv
  _atom_site_type_symbol
  Os1      1.0000 0.14108  0.04233  0.17700  Biso   1.000  Os
  Hf1      1.0000 0.13897  0.46050  0.42048  Biso   1.000  Hf
  Hf2      1.0000 0.35708  0.54664  0.17193  Biso   1.000  Hf
  Hf3      1.0000 0.36122  0.95842  0.42226  Biso   1.000  Hf
  Hf4      1.0000 0.63811  0.04398  0.07800  Biso   1.000  Hf
  Hf5      1.0000 0.63761  0.45834  0.32717  Biso   1.000  Hf
  Hf6      1.0000 0.86670  0.53979  0.07928  Biso   1.000  Hf
  Hf7      1.0000 0.86100  0.96088  0.32651  Biso   1.000  Hf
  O1       1.0000 0.03214  0.31868  0.08171  Biso   1.000  O
  O2       1.0000 0.03544  0.17802  0.32310  Biso   1.000  O
  O3       1.0000 0.46807  0.82657  0.08307  Biso   1.000  O
  O4       1.0000 0.46494  0.67035  0.33335  Biso   1.000  O
  O5       1.0000 0.27773  0.24353  0.29601  Biso   1.000  O
  O6       1.0000 0.27185  0.24188  0.05288  Biso   1.000  O
  O7       1.0000 0.21972  0.75199  0.29324  Biso   1.000  O
  O8       1.0000 0.22106  0.75189  0.04525  Biso   1.000  O
  O9       1.0000 0.53144  0.33168  0.16709  Biso   1.000  O
  O10      1.0000 0.53311  0.17076  0.41737  Biso   1.000  O
  O11      1.0000 0.97623  0.83643  0.16590  Biso   1.000  O
  O12      1.0000 0.96826  0.67713  0.41665  Biso   1.000  O
  O13      1.0000 0.77767  0.24727  0.45307  Biso   1.000  O
  O14      1.0000 0.77526  0.25272  0.20444  Biso   1.000  O
  O15      1.0000 0.72297  0.74733  0.45435  Biso   1.000  O
  O16      1.0000 0.72931  0.75308  0.20476  Biso   1.000  O
  Hf8      1.0000 0.13875  0.04181  0.67205  Biso   1.000  Hf
  Hf9      1.0000 0.13731  0.45291  0.92398  Biso   1.000  Hf
  Hf10     1.0000 0.36122  0.54225  0.67262  Biso   1.000  Hf
  Hf11     1.0000 0.35996  0.95433  0.92318  Biso   1.000  Hf
  Hf12     1.0000 0.63890  0.04300  0.57880  Biso   1.000  Hf
  Hf13     1.0000 0.63905  0.45891  0.82949  Biso   1.000  Hf
  Hf14     1.0000 0.86094  0.54296  0.57732  Biso   1.000  Hf
  Hf15     1.0000 0.86088  0.95739  0.82870  Biso   1.000  Hf
  O17      1.0000 0.03012  0.31960  0.57619  Biso   1.000  O
  O18      1.0000 0.03042  0.17573  0.82866  Biso   1.000  O
  O19      1.0000 0.46708  0.83091  0.58446  Biso   1.000  O
  O20      1.0000 0.46676  0.66998  0.83432  Biso   1.000  O
  O21      1.0000 0.27659  0.24668  0.79826  Biso   1.000  O
  O22      1.0000 0.27672  0.25398  0.54606  Biso   1.000  O
  O23      1.0000 0.22328  0.74685  0.79496  Biso   1.000  O
  O24      1.0000 0.22351  0.75134  0.54459  Biso   1.000  O
  O25      1.0000 0.53313  0.33039  0.66752  Biso   1.000  O
  O26      1.0000 0.53102  0.17258  0.91825  Biso   1.000  O
  O27      1.0000 0.96870  0.82261  0.66835  Biso   1.000  O
  O28      1.0000 0.96843  0.67092  0.91823  Biso   1.000  O
  O29      1.0000 0.77617  0.25022  0.95483  Biso   1.000  O
  O30      1.0000 0.77665  0.25246  0.70444  Biso   1.000  O
  O31      1.0000 0.72395  0.74870  0.95511  Biso   1.000  O
  O32      1.0000 0.72349  0.75330  0.70479  Biso   1.000  O
