data_image0
_cell_length_a       10.0817
_cell_length_b       10.3187
_cell_length_c       5.29199
_cell_angle_alpha    89.3903
_cell_angle_beta     91.0227
_cell_angle_gamma    89.9265

_symmetry_space_group_name_H-M    "P 1"
_symmetry_int_tables_number       1

loop_
  _symmetry_equiv_pos_as_xyz
  'x, y, z'

loop_
  _atom_site_label
  _atom_site_occupancy
  _atom_site_fract_x
  _atom_site_fract_y
  _atom_site_fract_z
  _atom_site_thermal_displace_type
  _atom_site_B_iso_or_equiv
  _atom_site_type_symbol
  Hf1      1.0000 0.14404  0.01759  0.33749  Biso   1.000  Hf
  Hf2      1.0000 0.14678  0.22644  0.82818  Biso   1.000  Hf
  Hf3      1.0000 0.36146  0.26637  0.34415  Biso   1.000  Hf
  Hf4      1.0000 0.36187  0.48066  0.84003  Biso   1.000  Hf
  Hf5      1.0000 0.63458  0.01607  0.14563  Biso   1.000  Hf
  Hf6      1.0000 0.62652  0.22259  0.70709  Biso   1.000  Hf
  Hf7      1.0000 0.88218  0.26505  0.13814  Biso   1.000  Hf
  Hf8      1.0000 0.86130  0.48307  0.66935  Biso   1.000  Hf
  O1       1.0000 0.04403  0.15612  0.13988  Biso   1.000  O
  O2       1.0000 0.03333  0.09152  0.63894  Biso   1.000  O
  O3       1.0000 0.47549  0.41285  0.16312  Biso   1.000  O
  O4       1.0000 0.45705  0.33140  0.67845  Biso   1.000  O
  O5       1.0000 0.27556  0.12015  0.58608  Biso   1.000  O
  O6       1.0000 0.28220  0.12219  0.08347  Biso   1.000  O
  O7       1.0000 0.22209  0.37202  0.57753  Biso   1.000  O
  O8       1.0000 0.22740  0.37446  0.08188  Biso   1.000  O
  O9       1.0000 0.51808  0.13706  0.38932  Biso   1.000  O
  O10      1.0000 0.53198  0.06037  0.82256  Biso   1.000  O
  O11      1.0000 0.95978  0.41275  0.33932  Biso   1.000  O
  O12      1.0000 0.97584  0.33772  0.82525  Biso   1.000  O
  O13      1.0000 0.79208  0.11677  0.88215  Biso   1.000  O
  O14      1.0000 0.76132  0.14656  0.37768  Biso   1.000  O
  O15      1.0000 0.73591  0.38259  0.96062  Biso   1.000  O
  O16      1.0000 0.69969  0.41430  0.48921  Biso   1.000  O
  Hf9      1.0000 0.13518  0.51831  0.33871  Biso   1.000  Hf
  Hf10     1.0000 0.13745  0.72582  0.84024  Biso   1.000  Hf
  Hf11     1.0000 0.35910  0.76767  0.34628  Biso   1.000  Hf
  Hf12     1.0000 0.35894  0.97051  0.84421  Biso   1.000  Hf
  Hf13     1.0000 0.64616  0.53796  0.17087  Biso   1.000  Hf
  Hf14     1.0000 0.63942  0.73159  0.66003  Biso   1.000  Hf
  Hf15     1.0000 0.86441  0.77663  0.15693  Biso   1.000  Hf
  Hf16     1.0000 0.86628  0.97811  0.65086  Biso   1.000  Hf
  O17      1.0000 0.03061  0.66096  0.15145  Biso   1.000  O
  O18      1.0000 0.03243  0.58997  0.64906  Biso   1.000  O
  O19      1.0000 0.46423  0.90625  0.16517  Biso   1.000  O
  O20      1.0000 0.46353  0.82868  0.66609  Biso   1.000  O
  O21      1.0000 0.27389  0.61991  0.58784  Biso   1.000  O
  O22      1.0000 0.27457  0.62190  0.09055  Biso   1.000  O
  O23      1.0000 0.22214  0.86979  0.58902  Biso   1.000  O
  O24      1.0000 0.22119  0.87116  0.09040  Biso   1.000  O
  O25      1.0000 0.53145  0.66542  0.34604  Biso   1.000  O
  O26      1.0000 0.53185  0.59057  0.84807  Biso   1.000  O
  O27      1.0000 0.97023  0.91669  0.32835  Biso   1.000  O
  O28      1.0000 0.97019  0.83980  0.83237  Biso   1.000  O
  O29      1.0000 0.77820  0.62895  0.91007  Biso   1.000  O
  O30      1.0000 0.78321  0.64036  0.41137  Biso   1.000  O
  O31      1.0000 0.72564  0.87222  0.91254  Biso   1.000  O
  O32      1.0000 0.72688  0.88212  0.41442  Biso   1.000  O
  Os1      1.0000 0.62111  0.27226  0.20411  Biso   1.000  Os
