data_image0
_cell_length_a       4.97685
_cell_length_b       10.3593
_cell_length_c       10.0001
_cell_angle_alpha    90.2019
_cell_angle_beta     89.1735
_cell_angle_gamma    89.8983

_symmetry_space_group_name_H-M    "P 1"
_symmetry_int_tables_number       1

loop_
  _symmetry_equiv_pos_as_xyz
  'x, y, z'

loop_
  _atom_site_label
  _atom_site_occupancy
  _atom_site_fract_x
  _atom_site_fract_y
  _atom_site_fract_z
  _atom_site_thermal_displace_type
  _atom_site_B_iso_or_equiv
  _atom_site_type_symbol
  P1       1.0000 0.16968  0.03686  0.10690  Biso   1.000  P 
  Hf1      1.0000 0.28650  0.22970  0.37648  Biso   1.000  Hf
  Hf2      1.0000 0.71523  0.26688  0.12380  Biso   1.000  Hf
  Hf3      1.0000 0.73981  0.48193  0.37590  Biso   1.000  Hf
  Hf4      1.0000 0.09663  0.17474  0.17777  Biso   1.000  Hf
  Hf5      1.0000 0.07760  0.06668  0.44263  Biso   1.000  Hf
  Hf6      1.0000 0.92912  0.42679  0.19472  Biso   1.000  Hf
  Hf7      1.0000 0.93708  0.31414  0.44433  Biso   1.000  Hf
  Hf8      1.0000 0.58777  0.13286  0.26023  Biso   1.000  Hf
  Hf9      1.0000 0.54080  0.13036  0.50492  Biso   1.000  Hf
  Hf10     1.0000 0.46553  0.38009  0.49929  Biso   1.000  Hf
  Hf11     1.0000 0.44845  0.36991  0.24884  Biso   1.000  Hf
  Hf12     1.0000 0.25935  0.01399  0.62604  Biso   1.000  Hf
  Hf13     1.0000 0.27153  0.23725  0.87443  Biso   1.000  Hf
  Hf14     1.0000 0.73754  0.26505  0.62531  Biso   1.000  Hf
  Hf15     1.0000 0.73365  0.48406  0.87444  Biso   1.000  Hf
  Hf16     1.0000 0.06662  0.18169  0.70027  Biso   1.000  Hf
  Hf17     1.0000 0.05332  0.06411  0.95995  Biso   1.000  Hf
  Hf18     1.0000 0.93106  0.43360  0.69316  Biso   1.000  Hf
  Hf19     1.0000 0.92431  0.31426  0.94151  Biso   1.000  Hf
  Hf20     1.0000 0.53047  0.11520  0.75107  Biso   1.000  Hf
  Hf21     1.0000 0.52633  0.13345  0.99882  Biso   1.000  Hf
  Hf22     1.0000 0.45679  0.38294  0.99985  Biso   1.000  Hf
  Hf23     1.0000 0.46055  0.36724  0.74926  Biso   1.000  Hf
  Hf24     1.0000 0.26565  0.51734  0.12899  Biso   1.000  Hf
  Hf25     1.0000 0.28221  0.73586  0.37563  Biso   1.000  Hf
  Hf26     1.0000 0.73152  0.76210  0.12084  Biso   1.000  Hf
  Hf27     1.0000 0.73064  0.98620  0.37570  Biso   1.000  Hf
  Hf28     1.0000 0.07640  0.68834  0.19588  Biso   1.000  Hf
  Hf29     1.0000 0.07982  0.56510  0.44250  Biso   1.000  Hf
  Hf30     1.0000 0.95239  0.94611  0.17734  Biso   1.000  Hf
  Hf31     1.0000 0.94546  0.82071  0.44878  Biso   1.000  Hf
  Hf32     1.0000 0.54564  0.61158  0.24802  Biso   1.000  Hf
  Hf33     1.0000 0.54889  0.63284  0.49919  Biso   1.000  Hf
  Hf34     1.0000 0.46618  0.88348  0.50309  Biso   1.000  Hf
  Hf35     1.0000 0.51565  0.85639  0.26025  Biso   1.000  Hf
  Hf36     1.0000 0.27067  0.51801  0.62380  Biso   1.000  Hf
  Hf37     1.0000 0.26407  0.73315  0.87876  Biso   1.000  Hf
  Hf38     1.0000 0.73751  0.76827  0.62604  Biso   1.000  Hf
  Hf39     1.0000 0.69841  0.97941  0.88060  Biso   1.000  Hf
  Hf40     1.0000 0.07285  0.68330  0.69453  Biso   1.000  Hf
  Hf41     1.0000 0.06630  0.56611  0.94824  Biso   1.000  Hf
  Hf42     1.0000 0.92043  0.93539  0.69977  Biso   1.000  Hf
  Hf43     1.0000 0.91571  0.81609  0.93897  Biso   1.000  Hf
  Hf44     1.0000 0.54063  0.61761  0.74987  Biso   1.000  Hf
  Hf45     1.0000 0.53769  0.62959  0.99996  Biso   1.000  Hf
  Hf46     1.0000 0.44254  0.87675  0.00300  Biso   1.000  Hf
  Hf47     1.0000 0.44966  0.86754  0.75110  Biso   1.000  Hf
