data_image0
_cell_length_a       10.2181
_cell_length_b       10.3745
_cell_length_c       5.09721
_cell_angle_alpha    95.0535
_cell_angle_beta     91.2828
_cell_angle_gamma    87.3313

_symmetry_space_group_name_H-M    "P 1"
_symmetry_int_tables_number       1

loop_
  _symmetry_equiv_pos_as_xyz
  'x, y, z'

loop_
  _atom_site_label
  _atom_site_occupancy
  _atom_site_fract_x
  _atom_site_fract_y
  _atom_site_fract_z
  _atom_site_thermal_displace_type
  _atom_site_B_iso_or_equiv
  _atom_site_type_symbol
  Hf1      1.0000 0.14592  0.98751  0.32847  Biso   1.000  Hf
  Hf2      1.0000 0.12117  0.27901  0.61724  Biso   1.000  Hf
  Hf3      1.0000 0.36644  0.25073  0.22361  Biso   1.000  Hf
  Hf4      1.0000 0.40751  0.01402  0.73048  Biso   1.000  Hf
  Hf5      1.0000 0.95149  0.18481  0.99528  Biso   1.000  Hf
  Hf6      1.0000 0.99370  0.11819  0.50486  Biso   1.000  Hf
  Hf7      1.0000 0.97423  0.37733  0.38977  Biso   1.000  Hf
  Hf8      1.0000 0.01326  0.41304  0.87339  Biso   1.000  Hf
  Hf9      1.0000 0.26844  0.14296  0.52717  Biso   1.000  Hf
  Hf10     1.0000 0.28827  0.07301  0.05065  Biso   1.000  Hf
  Hf11     1.0000 0.26075  0.35330  0.92704  Biso   1.000  Hf
  Hf12     1.0000 0.23643  0.40670  0.44298  Biso   1.000  Hf
  Hf13     1.0000 0.10897  0.49515  0.18206  Biso   1.000  Hf
  Hf14     1.0000 0.13025  0.75809  0.79842  Biso   1.000  Hf
  Hf15     1.0000 0.36940  0.73202  0.31226  Biso   1.000  Hf
  Hf16     1.0000 0.37069  0.49886  0.75227  Biso   1.000  Hf
  Hf17     1.0000 0.99079  0.65553  0.97511  Biso   1.000  Hf
  Hf18     1.0000 0.01121  0.62252  0.46720  Biso   1.000  Hf
  Hf19     1.0000 0.01873  0.87154  0.55166  Biso   1.000  Hf
  Hf20     1.0000 0.99666  0.91184  0.05750  Biso   1.000  Hf
  Hf21     1.0000 0.26394  0.65044  0.57789  Biso   1.000  Hf
  Hf22     1.0000 0.25002  0.59855  0.04908  Biso   1.000  Hf
  Hf23     1.0000 0.23708  0.83596  0.09994  Biso   1.000  Hf
  Hf24     1.0000 0.26580  0.89135  0.58981  Biso   1.000  Hf
  Hf25     1.0000 0.63541  0.97344  0.26406  Biso   1.000  Hf
  Hf26     1.0000 0.60442  0.26609  0.75050  Biso   1.000  Hf
  Hf27     1.0000 0.83210  0.23898  0.30491  Biso   1.000  Hf
  Hf28     1.0000 0.88608  0.01694  0.77380  Biso   1.000  Hf
  Hf29     1.0000 0.50089  0.16019  0.97134  Biso   1.000  Hf
  Hf30     1.0000 0.51325  0.10515  0.46912  Biso   1.000  Hf
  Hf31     1.0000 0.47160  0.34947  0.51838  Biso   1.000  Hf
  Hf32     1.0000 0.49152  0.40866  0.01945  Biso   1.000  Hf
  Hf33     1.0000 0.75161  0.14875  0.59431  Biso   1.000  Hf
  Hf34     1.0000 0.75746  0.07691  0.08026  Biso   1.000  Hf
  Hf35     1.0000 0.72598  0.33781  0.04586  Biso   1.000  Hf
  Hf36     1.0000 0.73110  0.39954  0.52742  Biso   1.000  Hf
  Hf37     1.0000 0.63424  0.50746  0.22334  Biso   1.000  Hf
  Hf38     1.0000 0.61841  0.73693  0.77192  Biso   1.000  Hf
  Hf39     1.0000 0.89249  0.76941  0.28346  Biso   1.000  Hf
  Hf40     1.0000 0.88000  0.52241  0.67890  Biso   1.000  Hf
  Hf41     1.0000 0.49578  0.65276  0.01913  Biso   1.000  Hf
  Hf42     1.0000 0.50557  0.59613  0.51505  Biso   1.000  Hf
  Hf43     1.0000 0.51435  0.84788  0.48062  Biso   1.000  Hf
  Hf44     1.0000 0.51747  0.90059  0.96758  Biso   1.000  Hf
  Hf45     1.0000 0.75726  0.65169  0.46023  Biso   1.000  Hf
  Hf46     1.0000 0.73406  0.58007  0.93559  Biso   1.000  Hf
  Hf47     1.0000 0.74955  0.82329  0.03134  Biso   1.000  Hf
  Hf48     1.0000 0.76996  0.90077  0.52629  Biso   1.000  Hf
  P1       1.0000 0.11318  0.16944  0.03103  Biso   1.000  P 
