data_image0
_cell_length_a       10.0753
_cell_length_b       5.00167
_cell_length_c       10.0753
_cell_angle_alpha    89.9999
_cell_angle_beta     90
_cell_angle_gamma    90

_symmetry_space_group_name_H-M    "P 1"
_symmetry_int_tables_number       1

loop_
  _symmetry_equiv_pos_as_xyz
  'x, y, z'

loop_
  _atom_site_label
  _atom_site_occupancy
  _atom_site_fract_x
  _atom_site_fract_y
  _atom_site_fract_z
  _atom_site_thermal_displace_type
  _atom_site_B_iso_or_equiv
  _atom_site_type_symbol
  P1       1.0000 0.12491  0.00011  0.12491  Biso   1.000  P 
  Hf1      1.0000 0.12491  0.50011  0.38175  Biso   1.000  Hf
  Hf2      1.0000 0.38175  0.50011  0.12491  Biso   1.000  Hf
  Hf3      1.0000 0.37206  0.02338  0.37206  Biso   1.000  Hf
  Hf4      1.0000 0.97156  0.33270  0.97156  Biso   1.000  Hf
  Hf5      1.0000 0.03470  0.17758  0.21511  Biso   1.000  Hf
  Hf6      1.0000 0.97156  0.66751  0.27826  Biso   1.000  Hf
  Hf7      1.0000 0.03470  0.82264  0.03471  Biso   1.000  Hf
  Hf8      1.0000 0.27826  0.33270  0.27826  Biso   1.000  Hf
  Hf9      1.0000 0.21511  0.17758  0.03471  Biso   1.000  Hf
  Hf10     1.0000 0.27826  0.66751  0.97156  Biso   1.000  Hf
  Hf11     1.0000 0.21511  0.82264  0.21511  Biso   1.000  Hf
  Hf12     1.0000 0.12491  0.00011  0.62491  Biso   1.000  Hf
  Hf13     1.0000 0.12491  0.50011  0.86807  Biso   1.000  Hf
  Hf14     1.0000 0.37835  0.50011  0.62491  Biso   1.000  Hf
  Hf15     1.0000 0.37206  0.97683  0.87776  Biso   1.000  Hf
  Hf16     1.0000 0.98888  0.24966  0.47524  Biso   1.000  Hf
  Hf17     1.0000 0.01110  0.25837  0.72782  Biso   1.000  Hf
  Hf18     1.0000 0.98889  0.75055  0.77458  Biso   1.000  Hf
  Hf19     1.0000 0.01110  0.74185  0.52200  Biso   1.000  Hf
  Hf20     1.0000 0.26093  0.24966  0.77458  Biso   1.000  Hf
  Hf21     1.0000 0.23872  0.25837  0.52200  Biso   1.000  Hf
  Hf22     1.0000 0.26093  0.75055  0.47524  Biso   1.000  Hf
  Hf23     1.0000 0.23872  0.74185  0.72782  Biso   1.000  Hf
  Hf24     1.0000 0.62491  0.00011  0.12491  Biso   1.000  Hf
  Hf25     1.0000 0.62491  0.50011  0.37835  Biso   1.000  Hf
  Hf26     1.0000 0.86807  0.50011  0.12491  Biso   1.000  Hf
  Hf27     1.0000 0.87776  0.97683  0.37206  Biso   1.000  Hf
  Hf28     1.0000 0.47524  0.24968  0.98888  Biso   1.000  Hf
  Hf29     1.0000 0.52199  0.25836  0.23871  Biso   1.000  Hf
  Hf30     1.0000 0.47524  0.75053  0.26094  Biso   1.000  Hf
  Hf31     1.0000 0.52199  0.74185  0.01111  Biso   1.000  Hf
  Hf32     1.0000 0.77458  0.24968  0.26094  Biso   1.000  Hf
  Hf33     1.0000 0.72782  0.25836  0.01111  Biso   1.000  Hf
  Hf34     1.0000 0.77457  0.75053  0.98888  Biso   1.000  Hf
  Hf35     1.0000 0.72782  0.74185  0.23871  Biso   1.000  Hf
  Hf36     1.0000 0.62491  0.00011  0.62491  Biso   1.000  Hf
  Hf37     1.0000 0.62491  0.50011  0.87147  Biso   1.000  Hf
  Hf38     1.0000 0.87147  0.50011  0.62491  Biso   1.000  Hf
  Hf39     1.0000 0.87776  0.02338  0.87776  Biso   1.000  Hf
  Hf40     1.0000 0.48798  0.25324  0.48798  Biso   1.000  Hf
  Hf41     1.0000 0.51275  0.25731  0.73706  Biso   1.000  Hf
  Hf42     1.0000 0.48798  0.74697  0.76184  Biso   1.000  Hf
  Hf43     1.0000 0.51275  0.74291  0.51276  Biso   1.000  Hf
  Hf44     1.0000 0.76184  0.25324  0.76184  Biso   1.000  Hf
  Hf45     1.0000 0.73707  0.25731  0.51276  Biso   1.000  Hf
  Hf46     1.0000 0.76183  0.74697  0.48798  Biso   1.000  Hf
  Hf47     1.0000 0.73707  0.74290  0.73706  Biso   1.000  Hf
