data_image0
_cell_length_a       9.98988
_cell_length_b       10.3815
_cell_length_c       10.0614
_cell_angle_alpha    89.7287
_cell_angle_beta     89.9259
_cell_angle_gamma    90.5058

_symmetry_space_group_name_H-M    "P 1"
_symmetry_int_tables_number       1

loop_
  _symmetry_equiv_pos_as_xyz
  'x, y, z'

loop_
  _atom_site_label
  _atom_site_occupancy
  _atom_site_fract_x
  _atom_site_fract_y
  _atom_site_fract_z
  _atom_site_thermal_displace_type
  _atom_site_B_iso_or_equiv
  _atom_site_type_symbol
  Hf1      1.0000 0.14299  0.01366  0.11924  Biso   1.000  Hf
  Hf2      1.0000 0.13791  0.23163  0.39781  Biso   1.000  Hf
  Hf3      1.0000 0.36630  0.26222  0.12190  Biso   1.000  Hf
  Hf4      1.0000 0.36809  0.48428  0.37581  Biso   1.000  Hf
  Hf5      1.0000 0.02017  0.18584  0.22358  Biso   1.000  Hf
  Hf6      1.0000 0.03847  0.06306  0.44963  Biso   1.000  Hf
  Hf7      1.0000 0.45976  0.43303  0.19361  Biso   1.000  Hf
  Hf8      1.0000 0.46407  0.31574  0.44609  Biso   1.000  Hf
  Hf9      1.0000 0.26564  0.11560  0.25447  Biso   1.000  Hf
  Hf10     1.0000 0.27716  0.12892  0.50472  Biso   1.000  Hf
  Hf11     1.0000 0.23340  0.38268  0.50448  Biso   1.000  Hf
  Hf12     1.0000 0.22736  0.36448  0.25996  Biso   1.000  Hf
  Hf13     1.0000 0.13709  0.01088  0.62741  Biso   1.000  Hf
  Hf14     1.0000 0.13502  0.22627  0.86680  Biso   1.000  Hf
  Hf15     1.0000 0.36984  0.26669  0.62916  Biso   1.000  Hf
  Hf16     1.0000 0.36987  0.48553  0.87353  Biso   1.000  Hf
  Hf17     1.0000 0.04115  0.18251  0.68457  Biso   1.000  Hf
  Hf18     1.0000 0.04136  0.05850  0.93981  Biso   1.000  Hf
  Hf19     1.0000 0.46455  0.43458  0.69398  Biso   1.000  Hf
  Hf20     1.0000 0.46692  0.31440  0.94128  Biso   1.000  Hf
  Hf21     1.0000 0.27160  0.11452  0.74913  Biso   1.000  Hf
  Hf22     1.0000 0.29153  0.11892  0.99260  Biso   1.000  Hf
  Hf23     1.0000 0.23767  0.38675  0.99519  Biso   1.000  Hf
  Hf24     1.0000 0.22992  0.36708  0.74931  Biso   1.000  Hf
  Hf25     1.0000 0.12701  0.51907  0.12527  Biso   1.000  Hf
  Hf26     1.0000 0.13415  0.73360  0.37568  Biso   1.000  Hf
  Hf27     1.0000 0.36534  0.76346  0.12628  Biso   1.000  Hf
  Hf28     1.0000 0.36779  0.98240  0.37511  Biso   1.000  Hf
  Hf29     1.0000 0.03514  0.68673  0.19535  Biso   1.000  Hf
  Hf30     1.0000 0.03645  0.56779  0.44530  Biso   1.000  Hf
  Hf31     1.0000 0.46416  0.93291  0.19418  Biso   1.000  Hf
  Hf32     1.0000 0.46457  0.81511  0.44408  Biso   1.000  Hf
  Hf33     1.0000 0.26825  0.61553  0.24999  Biso   1.000  Hf
  Hf34     1.0000 0.27109  0.63207  0.49926  Biso   1.000  Hf
  Hf35     1.0000 0.23093  0.88106  0.49899  Biso   1.000  Hf
  Hf36     1.0000 0.23152  0.86609  0.24845  Biso   1.000  Hf
  Hf37     1.0000 0.13462  0.51696  0.62573  Biso   1.000  Hf
  Hf38     1.0000 0.13348  0.73236  0.87559  Biso   1.000  Hf
  Hf39     1.0000 0.36839  0.76455  0.62492  Biso   1.000  Hf
  Hf40     1.0000 0.37257  0.97873  0.87364  Biso   1.000  Hf
  Hf41     1.0000 0.03712  0.68480  0.69460  Biso   1.000  Hf
  Hf42     1.0000 0.03475  0.56264  0.94510  Biso   1.000  Hf
  Hf43     1.0000 0.46724  0.93220  0.69124  Biso   1.000  Hf
  Hf44     1.0000 0.46654  0.81379  0.94675  Biso   1.000  Hf
  Hf45     1.0000 0.27015  0.61673  0.74967  Biso   1.000  Hf
  Hf46     1.0000 0.26858  0.63279  0.99931  Biso   1.000  Hf
  Hf47     1.0000 0.23072  0.87851  0.99934  Biso   1.000  Hf
  Hf48     1.0000 0.23328  0.86428  0.74975  Biso   1.000  Hf
  Hf49     1.0000 0.63381  0.01630  0.12553  Biso   1.000  Hf
  Hf50     1.0000 0.63282  0.23254  0.37835  Biso   1.000  Hf
  Hf51     1.0000 0.84883  0.27505  0.12272  Biso   1.000  Hf
  Hf52     1.0000 0.86495  0.48578  0.37985  Biso   1.000  Hf
  Hf53     1.0000 0.53409  0.18114  0.19515  Biso   1.000  Hf
  Hf54     1.0000 0.53796  0.06428  0.44479  Biso   1.000  Hf
  Hf55     1.0000 0.94451  0.44860  0.19906  Biso   1.000  Hf
  Hf56     1.0000 0.96729  0.31951  0.45137  Biso   1.000  Hf
  Hf57     1.0000 0.76813  0.12122  0.24933  Biso   1.000  Hf
  Hf58     1.0000 0.77322  0.13405  0.49976  Biso   1.000  Hf
  Hf59     1.0000 0.72901  0.38107  0.50098  Biso   1.000  Hf
  Hf60     1.0000 0.72010  0.37089  0.25189  Biso   1.000  Hf
  Hf61     1.0000 0.63778  0.01615  0.62518  Biso   1.000  Hf
  Hf62     1.0000 0.63532  0.23221  0.87395  Biso   1.000  Hf
  Hf63     1.0000 0.86722  0.26900  0.63003  Biso   1.000  Hf
  Hf64     1.0000 0.86466  0.48403  0.87162  Biso   1.000  Hf
  Hf65     1.0000 0.53884  0.18276  0.69362  Biso   1.000  Hf
  Hf66     1.0000 0.54493  0.06136  0.93984  Biso   1.000  Hf
  Hf67     1.0000 0.95986  0.44092  0.68745  Biso   1.000  Hf
  Hf68     1.0000 0.94765  0.30837  0.90706  Biso   1.000  Hf
  Hf69     1.0000 0.77319  0.11717  0.74969  Biso   1.000  Hf
  Hf70     1.0000 0.77250  0.13264  0.00054  Biso   1.000  Hf
  Hf71     1.0000 0.72590  0.38442  0.00030  Biso   1.000  Hf
  Hf72     1.0000 0.72478  0.37050  0.74832  Biso   1.000  Hf
  Hf73     1.0000 0.63155  0.51971  0.12934  Biso   1.000  Hf
  Hf74     1.0000 0.63563  0.73579  0.37673  Biso   1.000  Hf
  Hf75     1.0000 0.86603  0.76787  0.12691  Biso   1.000  Hf
  Hf76     1.0000 0.86873  0.98683  0.37373  Biso   1.000  Hf
  Hf77     1.0000 0.53402  0.68386  0.19783  Biso   1.000  Hf
  Hf78     1.0000 0.53694  0.56644  0.44525  Biso   1.000  Hf
  Hf79     1.0000 0.96757  0.93859  0.19178  Biso   1.000  Hf
  Hf80     1.0000 0.96477  0.81748  0.44349  Biso   1.000  Hf
  Hf81     1.0000 0.76674  0.62242  0.25365  Biso   1.000  Hf
  Hf82     1.0000 0.76983  0.63438  0.50145  Biso   1.000  Hf
  Hf83     1.0000 0.73278  0.88426  0.49922  Biso   1.000  Hf
  Hf84     1.0000 0.73119  0.87079  0.24978  Biso   1.000  Hf
  Hf85     1.0000 0.63515  0.51706  0.62550  Biso   1.000  Hf
  Hf86     1.0000 0.63615  0.73336  0.87709  Biso   1.000  Hf
  Hf87     1.0000 0.86813  0.76744  0.62565  Biso   1.000  Hf
  Hf88     1.0000 0.86638  0.98249  0.87620  Biso   1.000  Hf
  Hf89     1.0000 0.53566  0.68245  0.69719  Biso   1.000  Hf
  Hf90     1.0000 0.53623  0.56710  0.94796  Biso   1.000  Hf
  Hf91     1.0000 0.96602  0.93258  0.69739  Biso   1.000  Hf
  Hf92     1.0000 0.96379  0.81338  0.94466  Biso   1.000  Hf
  Hf93     1.0000 0.77008  0.61960  0.74989  Biso   1.000  Hf
  Hf94     1.0000 0.76986  0.63296  0.00217  Biso   1.000  Hf
  Hf95     1.0000 0.73117  0.88194  0.00063  Biso   1.000  Hf
  Hf96     1.0000 0.73132  0.86757  0.74958  Biso   1.000  Hf
  P1       1.0000 0.10190  0.27394  0.11042  Biso   1.000  P 
