data_image0
_cell_length_a       5.06207
_cell_length_b       10.4876
_cell_length_c       10.226
_cell_angle_alpha    86.6219
_cell_angle_beta     93.1756
_cell_angle_gamma    92.8522

_symmetry_space_group_name_H-M    "P 1"
_symmetry_int_tables_number       1

loop_
  _symmetry_equiv_pos_as_xyz
  'x, y, z'

loop_
  _atom_site_label
  _atom_site_occupancy
  _atom_site_fract_x
  _atom_site_fract_y
  _atom_site_fract_z
  _atom_site_thermal_displace_type
  _atom_site_B_iso_or_equiv
  _atom_site_type_symbol
  Hf1      1.0000 0.29254  0.99916  0.10465  Biso   1.000  Hf
  Hf2      1.0000 0.23558  0.23261  0.40714  Biso   1.000  Hf
  Hf3      1.0000 0.60701  0.27272  0.15941  Biso   1.000  Hf
  Hf4      1.0000 0.73819  0.49804  0.39140  Biso   1.000  Hf
  Hf5      1.0000 0.90334  0.18432  0.27187  Biso   1.000  Hf
  Hf6      1.0000 0.08071  0.05517  0.46000  Biso   1.000  Hf
  Hf7      1.0000 0.84134  0.44846  0.21437  Biso   1.000  Hf
  Hf8      1.0000 0.94490  0.33521  0.46255  Biso   1.000  Hf
  Hf9      1.0000 0.42889  0.11140  0.25914  Biso   1.000  Hf
  Hf10     1.0000 0.56756  0.14094  0.50240  Biso   1.000  Hf
  Hf11     1.0000 0.46973  0.38947  0.49817  Biso   1.000  Hf
  Hf12     1.0000 0.34258  0.36978  0.25120  Biso   1.000  Hf
  Hf13     1.0000 0.31215  0.00615  0.62212  Biso   1.000  Hf
  Hf14     1.0000 0.33722  0.21523  0.84843  Biso   1.000  Hf
  Hf15     1.0000 0.78308  0.26858  0.63194  Biso   1.000  Hf
  Hf16     1.0000 0.76175  0.46567  0.85930  Biso   1.000  Hf
  Hf17     1.0000 0.13976  0.17948  0.65948  Biso   1.000  Hf
  Hf18     1.0000 0.12988  0.04760  0.91550  Biso   1.000  Hf
  Hf19     1.0000 0.92579  0.45463  0.67253  Biso   1.000  Hf
  Hf20     1.0000 0.95893  0.29257  0.84352  Biso   1.000  Hf
  Hf21     1.0000 0.58827  0.10662  0.74977  Biso   1.000  Hf
  Hf22     1.0000 0.60920  0.12238  0.00911  Biso   1.000  Hf
  Hf23     1.0000 0.49042  0.37116  0.98080  Biso   1.000  Hf
  Hf24     1.0000 0.48006  0.36335  0.73417  Biso   1.000  Hf
  Hf25     1.0000 0.21274  0.53618  0.14618  Biso   1.000  Hf
  Hf26     1.0000 0.27833  0.74786  0.38431  Biso   1.000  Hf
  Hf27     1.0000 0.72005  0.76523  0.13277  Biso   1.000  Hf
  Hf28     1.0000 0.75164  0.00455  0.35758  Biso   1.000  Hf
  Hf29     1.0000 0.05348  0.69018  0.21044  Biso   1.000  Hf
  Hf30     1.0000 0.08258  0.58036  0.45022  Biso   1.000  Hf
  Hf31     1.0000 0.94135  0.94666  0.18425  Biso   1.000  Hf
  Hf32     1.0000 0.94466  0.82267  0.44532  Biso   1.000  Hf
  Hf33     1.0000 0.51494  0.62580  0.26756  Biso   1.000  Hf
  Hf34     1.0000 0.54695  0.64243  0.51067  Biso   1.000  Hf
  Hf35     1.0000 0.49191  0.89200  0.49479  Biso   1.000  Hf
  Hf36     1.0000 0.48004  0.86897  0.24424  Biso   1.000  Hf
  Hf37     1.0000 0.29107  0.51698  0.62415  Biso   1.000  Hf
  Hf38     1.0000 0.27538  0.72938  0.87599  Biso   1.000  Hf
  Hf39     1.0000 0.76756  0.77032  0.62455  Biso   1.000  Hf
  Hf40     1.0000 0.77350  0.96835  0.87296  Biso   1.000  Hf
  Hf41     1.0000 0.09126  0.68132  0.69873  Biso   1.000  Hf
  Hf42     1.0000 0.05090  0.56154  0.95735  Biso   1.000  Hf
  Hf43     1.0000 0.97562  0.92560  0.70409  Biso   1.000  Hf
  Hf44     1.0000 0.95757  0.80647  0.95945  Biso   1.000  Hf
  Hf45     1.0000 0.54975  0.60945  0.76500  Biso   1.000  Hf
  Hf46     1.0000 0.49674  0.63808  0.02378  Biso   1.000  Hf
  Hf47     1.0000 0.48759  0.87783  0.99241  Biso   1.000  Hf
  Hf48     1.0000 0.50352  0.85641  0.74795  Biso   1.000  Hf
  Pb1      1.0000 0.06256  0.25580  0.06304  Biso   1.000  Pb
