data_image0
_cell_length_a       10.0378
_cell_length_b       5.12574
_cell_length_c       10.0377
_cell_angle_alpha    89.9999
_cell_angle_beta     89.9967
_cell_angle_gamma    90.0051

_symmetry_space_group_name_H-M    "P 1"
_symmetry_int_tables_number       1

loop_
  _symmetry_equiv_pos_as_xyz
  'x, y, z'

loop_
  _atom_site_label
  _atom_site_occupancy
  _atom_site_fract_x
  _atom_site_fract_y
  _atom_site_fract_z
  _atom_site_thermal_displace_type
  _atom_site_B_iso_or_equiv
  _atom_site_type_symbol
  Pb1      1.0000 0.12480  0.00053  0.12483  Biso   1.000  Pb
  Hf1      1.0000 0.12480  0.00054  0.62484  Biso   1.000  Hf
  Hf2      1.0000 0.62480  0.00054  0.12484  Biso   1.000  Hf
  Hf3      1.0000 0.62480  0.00054  0.62483  Biso   1.000  Hf
  Hf4      1.0000 0.12481  0.50056  0.37685  Biso   1.000  Hf
  Hf5      1.0000 0.12480  0.50056  0.87278  Biso   1.000  Hf
  Hf6      1.0000 0.62480  0.50056  0.37423  Biso   1.000  Hf
  Hf7      1.0000 0.62481  0.50056  0.87540  Biso   1.000  Hf
  Hf8      1.0000 0.37684  0.50056  0.12481  Biso   1.000  Hf
  Hf9      1.0000 0.37422  0.50056  0.62482  Biso   1.000  Hf
  Hf10     1.0000 0.87277  0.50056  0.12481  Biso   1.000  Hf
  Hf11     1.0000 0.87539  0.50057  0.62481  Biso   1.000  Hf
  Hf12     1.0000 0.37652  0.00532  0.37655  Biso   1.000  Hf
  Hf13     1.0000 0.37652  0.99580  0.87312  Biso   1.000  Hf
  Hf14     1.0000 0.87309  0.99581  0.37655  Biso   1.000  Hf
  Hf15     1.0000 0.87308  0.00532  0.87312  Biso   1.000  Hf
  Hf16     1.0000 0.99133  0.30575  0.99135  Biso   1.000  Hf
  Hf17     1.0000 0.99728  0.29615  0.49798  Biso   1.000  Hf
  Hf18     1.0000 0.49796  0.29614  0.99729  Biso   1.000  Hf
  Hf19     1.0000 0.49736  0.29848  0.49738  Biso   1.000  Hf
  Hf20     1.0000 0.99867  0.20834  0.25093  Biso   1.000  Hf
  Hf21     1.0000 0.00060  0.20416  0.74689  Biso   1.000  Hf
  Hf22     1.0000 0.50271  0.20417  0.24900  Biso   1.000  Hf
  Hf23     1.0000 0.50147  0.20326  0.74811  Biso   1.000  Hf
  Hf24     1.0000 0.99137  0.69537  0.25826  Biso   1.000  Hf
  Hf25     1.0000 0.99731  0.70496  0.75162  Biso   1.000  Hf
  Hf26     1.0000 0.49801  0.70497  0.25231  Biso   1.000  Hf
  Hf27     1.0000 0.49740  0.70265  0.75223  Biso   1.000  Hf
  Hf28     1.0000 0.99868  0.79280  0.99868  Biso   1.000  Hf
  Hf29     1.0000 0.00061  0.79696  0.50273  Biso   1.000  Hf
  Hf30     1.0000 0.50273  0.79696  0.00061  Biso   1.000  Hf
  Hf31     1.0000 0.50150  0.79787  0.50149  Biso   1.000  Hf
  Hf32     1.0000 0.25826  0.30575  0.25827  Biso   1.000  Hf
  Hf33     1.0000 0.25230  0.29614  0.75163  Biso   1.000  Hf
  Hf34     1.0000 0.75162  0.29615  0.25232  Biso   1.000  Hf
  Hf35     1.0000 0.75221  0.29847  0.75223  Biso   1.000  Hf
  Hf36     1.0000 0.25091  0.20831  0.99869  Biso   1.000  Hf
  Hf37     1.0000 0.24898  0.20417  0.50273  Biso   1.000  Hf
  Hf38     1.0000 0.74687  0.20416  0.00062  Biso   1.000  Hf
  Hf39     1.0000 0.74811  0.20326  0.50150  Biso   1.000  Hf
  Hf40     1.0000 0.25826  0.69535  0.99135  Biso   1.000  Hf
  Hf41     1.0000 0.25232  0.70497  0.49799  Biso   1.000  Hf
  Hf42     1.0000 0.75163  0.70496  0.99730  Biso   1.000  Hf
  Hf43     1.0000 0.75223  0.70263  0.49739  Biso   1.000  Hf
  Hf44     1.0000 0.25095  0.79279  0.25093  Biso   1.000  Hf
  Hf45     1.0000 0.24901  0.79695  0.74689  Biso   1.000  Hf
  Hf46     1.0000 0.74692  0.79695  0.24900  Biso   1.000  Hf
  Hf47     1.0000 0.74813  0.79786  0.74812  Biso   1.000  Hf
