data_image0
_cell_length_a       10.1283
_cell_length_b       5.15529
_cell_length_c       10.4624
_cell_angle_alpha    90.0171
_cell_angle_beta     80.6555
_cell_angle_gamma    89.9934

_symmetry_space_group_name_H-M    "P 1"
_symmetry_int_tables_number       1

loop_
  _symmetry_equiv_pos_as_xyz
  'x, y, z'

loop_
  _atom_site_label
  _atom_site_occupancy
  _atom_site_fract_x
  _atom_site_fract_y
  _atom_site_fract_z
  _atom_site_thermal_displace_type
  _atom_site_B_iso_or_equiv
  _atom_site_type_symbol
  Pb1      1.0000 0.13516  0.03531  0.14534  Biso   1.000  Pb
  Hf1      1.0000 0.13907  0.04253  0.64535  Biso   1.000  Hf
  Hf2      1.0000 0.63889  0.03993  0.14606  Biso   1.000  Hf
  Hf3      1.0000 0.63918  0.04351  0.64628  Biso   1.000  Hf
  Hf4      1.0000 0.13788  0.45667  0.39742  Biso   1.000  Hf
  Hf5      1.0000 0.13961  0.45898  0.89288  Biso   1.000  Hf
  Hf6      1.0000 0.63753  0.45608  0.39645  Biso   1.000  Hf
  Hf7      1.0000 0.63995  0.45790  0.89513  Biso   1.000  Hf
  Hf8      1.0000 0.36390  0.53942  0.10351  Biso   1.000  Hf
  Hf9      1.0000 0.36136  0.54268  0.60371  Biso   1.000  Hf
  Hf10     1.0000 0.85798  0.53816  0.10377  Biso   1.000  Hf
  Hf11     1.0000 0.86166  0.54359  0.60493  Biso   1.000  Hf
  Hf12     1.0000 0.36170  0.95645  0.35450  Biso   1.000  Hf
  Hf13     1.0000 0.36368  0.95903  0.85207  Biso   1.000  Hf
  Hf14     1.0000 0.85651  0.95664  0.35800  Biso   1.000  Hf
  Hf15     1.0000 0.86219  0.95707  0.85433  Biso   1.000  Hf
  O1       1.0000 0.03853  0.36103  0.07917  Biso   1.000  O
  O2       1.0000 0.03692  0.34380  0.58314  Biso   1.000  O
  O3       1.0000 0.53834  0.33878  0.07998  Biso   1.000  O
  O4       1.0000 0.53577  0.33887  0.58077  Biso   1.000  O
  O5       1.0000 0.03151  0.16048  0.33789  Biso   1.000  O
  O6       1.0000 0.03761  0.15766  0.83123  Biso   1.000  O
  O7       1.0000 0.53626  0.15819  0.33098  Biso   1.000  O
  O8       1.0000 0.53790  0.16084  0.82968  Biso   1.000  O
  O9       1.0000 0.46435  0.83871  0.16956  Biso   1.000  O
  O10      1.0000 0.46491  0.83951  0.66846  Biso   1.000  O
  O11      1.0000 0.94964  0.84565  0.17044  Biso   1.000  O
  O12      1.0000 0.96357  0.84223  0.66922  Biso   1.000  O
  O13      1.0000 0.46333  0.65812  0.41954  Biso   1.000  O
  O14      1.0000 0.46594  0.66105  0.91862  Biso   1.000  O
  O15      1.0000 0.96283  0.66080  0.42017  Biso   1.000  O
  O16      1.0000 0.96321  0.65915  0.91877  Biso   1.000  O
  O17      1.0000 0.27960  0.25709  0.24215  Biso   1.000  O
  O18      1.0000 0.27688  0.25846  0.73831  Biso   1.000  O
  O19      1.0000 0.77477  0.25886  0.24176  Biso   1.000  O
  O20      1.0000 0.77746  0.25948  0.74074  Biso   1.000  O
  O21      1.0000 0.27634  0.24108  0.49030  Biso   1.000  O
  O22      1.0000 0.28119  0.24893  0.98386  Biso   1.000  O
  O23      1.0000 0.77545  0.24224  0.49206  Biso   1.000  O
  O24      1.0000 0.77685  0.23943  0.99039  Biso   1.000  O
  O25      1.0000 0.22956  0.75645  0.00477  Biso   1.000  O
  O26      1.0000 0.22355  0.75887  0.50946  Biso   1.000  O
  O27      1.0000 0.72297  0.75744  0.00923  Biso   1.000  O
  O28      1.0000 0.72233  0.75775  0.51070  Biso   1.000  O
  O29      1.0000 0.22664  0.73029  0.26031  Biso   1.000  O
  O30      1.0000 0.22461  0.74252  0.75799  Biso   1.000  O
  O31      1.0000 0.72053  0.74006  0.26107  Biso   1.000  O
  O32      1.0000 0.72441  0.74220  0.75952  Biso   1.000  O
