data_image0
_cell_length_a       5.0184
_cell_length_b       10.2539
_cell_length_c       10.038
_cell_angle_alpha    89.9909
_cell_angle_beta     90.0014
_cell_angle_gamma    89.9967

_symmetry_space_group_name_H-M    "P 1"
_symmetry_int_tables_number       1

loop_
  _symmetry_equiv_pos_as_xyz
  'x, y, z'

loop_
  _atom_site_label
  _atom_site_occupancy
  _atom_site_fract_x
  _atom_site_fract_y
  _atom_site_fract_z
  _atom_site_thermal_displace_type
  _atom_site_B_iso_or_equiv
  _atom_site_type_symbol
  Pb1      1.0000 0.25032  0.00003  0.12501  Biso   1.000  Pb
  Hf1      1.0000 0.25031  0.00002  0.62501  Biso   1.000  Hf
  Hf2      1.0000 0.25031  0.50001  0.12500  Biso   1.000  Hf
  Hf3      1.0000 0.25029  0.50002  0.62500  Biso   1.000  Hf
  Hf4      1.0000 0.25225  0.25182  0.37566  Biso   1.000  Hf
  Hf5      1.0000 0.24852  0.25183  0.87438  Biso   1.000  Hf
  Hf6      1.0000 0.24854  0.74822  0.37566  Biso   1.000  Hf
  Hf7      1.0000 0.25226  0.74822  0.87439  Biso   1.000  Hf
  Hf8      1.0000 0.75039  0.25339  0.12502  Biso   1.000  Hf
  Hf9      1.0000 0.75039  0.24905  0.62502  Biso   1.000  Hf
  Hf10     1.0000 0.75040  0.74665  0.12503  Biso   1.000  Hf
  Hf11     1.0000 0.75040  0.75099  0.62503  Biso   1.000  Hf
  Hf12     1.0000 0.75032  0.00001  0.37774  Biso   1.000  Hf
  Hf13     1.0000 0.75033  0.00002  0.87228  Biso   1.000  Hf
  Hf14     1.0000 0.75030  0.50003  0.37605  Biso   1.000  Hf
  Hf15     1.0000 0.75029  0.50003  0.87397  Biso   1.000  Hf
  Hf16     1.0000 0.97976  0.15301  0.99019  Biso   1.000  Hf
  Hf17     1.0000 0.99545  0.14902  0.49625  Biso   1.000  Hf
  Hf18     1.0000 0.00334  0.64774  0.99978  Biso   1.000  Hf
  Hf19     1.0000 0.99655  0.64779  0.50016  Biso   1.000  Hf
  Hf20     1.0000 0.00377  0.10561  0.25116  Biso   1.000  Hf
  Hf21     1.0000 0.00139  0.10144  0.74557  Biso   1.000  Hf
  Hf22     1.0000 0.99854  0.60013  0.24942  Biso   1.000  Hf
  Hf23     1.0000 0.00360  0.60161  0.75022  Biso   1.000  Hf
  Hf24     1.0000 0.00333  0.35230  0.25026  Biso   1.000  Hf
  Hf25     1.0000 0.99648  0.35225  0.74989  Biso   1.000  Hf
  Hf26     1.0000 0.97976  0.84703  0.25985  Biso   1.000  Hf
  Hf27     1.0000 0.99547  0.85102  0.75379  Biso   1.000  Hf
  Hf28     1.0000 0.99846  0.39991  0.00064  Biso   1.000  Hf
  Hf29     1.0000 0.00355  0.39843  0.49984  Biso   1.000  Hf
  Hf30     1.0000 0.00382  0.89443  0.99887  Biso   1.000  Hf
  Hf31     1.0000 0.00140  0.89859  0.50446  Biso   1.000  Hf
  Hf32     1.0000 0.52096  0.15301  0.25986  Biso   1.000  Hf
  Hf33     1.0000 0.50526  0.14903  0.75380  Biso   1.000  Hf
  Hf34     1.0000 0.49742  0.64775  0.25027  Biso   1.000  Hf
  Hf35     1.0000 0.50418  0.64780  0.74989  Biso   1.000  Hf
  Hf36     1.0000 0.49698  0.10560  0.99889  Biso   1.000  Hf
  Hf37     1.0000 0.49934  0.10144  0.50447  Biso   1.000  Hf
  Hf38     1.0000 0.50220  0.60013  0.00064  Biso   1.000  Hf
  Hf39     1.0000 0.49711  0.60160  0.49983  Biso   1.000  Hf
  Hf40     1.0000 0.49733  0.35230  0.99980  Biso   1.000  Hf
  Hf41     1.0000 0.50411  0.35224  0.50018  Biso   1.000  Hf
  Hf42     1.0000 0.52101  0.84703  0.99017  Biso   1.000  Hf
  Hf43     1.0000 0.50530  0.85101  0.49622  Biso   1.000  Hf
  Hf44     1.0000 0.50219  0.39991  0.24942  Biso   1.000  Hf
  Hf45     1.0000 0.49703  0.39844  0.75024  Biso   1.000  Hf
  Hf46     1.0000 0.49696  0.89443  0.25114  Biso   1.000  Hf
  Hf47     1.0000 0.49936  0.89861  0.74556  Biso   1.000  Hf
