data_image0
_cell_length_a       10.1727
_cell_length_b       10.4171
_cell_length_c       10.1158
_cell_angle_alpha    86.6213
_cell_angle_beta     90.4509
_cell_angle_gamma    87.0606

_symmetry_space_group_name_H-M    "P 1"
_symmetry_int_tables_number       1

loop_
  _symmetry_equiv_pos_as_xyz
  'x, y, z'

loop_
  _atom_site_label
  _atom_site_occupancy
  _atom_site_fract_x
  _atom_site_fract_y
  _atom_site_fract_z
  _atom_site_thermal_displace_type
  _atom_site_B_iso_or_equiv
  _atom_site_type_symbol
  Hf1      1.0000 0.10600  0.96310  0.11561  Biso   1.000  Hf
  Hf2      1.0000 0.11746  0.25988  0.39398  Biso   1.000  Hf
  Hf3      1.0000 0.37784  0.23158  0.11695  Biso   1.000  Hf
  Hf4      1.0000 0.35368  0.02601  0.38221  Biso   1.000  Hf
  Hf5      1.0000 0.00099  0.10498  0.99247  Biso   1.000  Hf
  Hf6      1.0000 0.97960  0.05597  0.23961  Biso   1.000  Hf
  Hf7      1.0000 0.95324  0.31631  0.26409  Biso   1.000  Hf
  Hf8      1.0000 0.95182  0.33769  0.95173  Biso   1.000  Hf
  Hf9      1.0000 0.25242  0.18109  0.27010  Biso   1.000  Hf
  Hf10     1.0000 0.25222  0.07683  0.01179  Biso   1.000  Hf
  Hf11     1.0000 0.28675  0.32850  0.93718  Biso   1.000  Hf
  Hf12     1.0000 0.19693  0.46122  0.29414  Biso   1.000  Hf
  Hf13     1.0000 0.10571  0.00130  0.61851  Biso   1.000  Hf
  Hf14     1.0000 0.12506  0.21972  0.88080  Biso   1.000  Hf
  Hf15     1.0000 0.39443  0.27620  0.64478  Biso   1.000  Hf
  Hf16     1.0000 0.37459  0.01434  0.85948  Biso   1.000  Hf
  Hf17     1.0000 0.97291  0.14856  0.49964  Biso   1.000  Hf
  Hf18     1.0000 0.00546  0.11416  0.74859  Biso   1.000  Hf
  Hf19     1.0000 0.05338  0.35649  0.73161  Biso   1.000  Hf
  Hf20     1.0000 0.99591  0.40184  0.49381  Biso   1.000  Hf
  Hf21     1.0000 0.26550  0.16340  0.74719  Biso   1.000  Hf
  Hf22     1.0000 0.21555  0.10701  0.49899  Biso   1.000  Hf
  Hf23     1.0000 0.25068  0.34931  0.50587  Biso   1.000  Hf
  Hf24     1.0000 0.30138  0.44356  0.71120  Biso   1.000  Hf
  Hf25     1.0000 0.13858  0.61866  0.15229  Biso   1.000  Hf
  Hf26     1.0000 0.15415  0.77325  0.40174  Biso   1.000  Hf
  Hf27     1.0000 0.40478  0.72831  0.10704  Biso   1.000  Hf
  Hf28     1.0000 0.37588  0.49751  0.36442  Biso   1.000  Hf
  Hf29     1.0000 0.01028  0.65382  0.98478  Biso   1.000  Hf
  Hf30     1.0000 0.95866  0.57031  0.22455  Biso   1.000  Hf
  Hf31     1.0000 0.03571  0.78815  0.22630  Biso   1.000  Hf
  Hf32     1.0000 0.96381  0.88141  0.99946  Biso   1.000  Hf
  Hf33     1.0000 0.28286  0.68263  0.27368  Biso   1.000  Hf
  Hf34     1.0000 0.28934  0.57517  0.02771  Biso   1.000  Hf
  Hf35     1.0000 0.21572  0.80312  0.03872  Biso   1.000  Hf
  Hf36     1.0000 0.22825  0.92645  0.28204  Biso   1.000  Hf
  Hf37     1.0000 0.13396  0.49513  0.60064  Biso   1.000  Hf
  Hf38     1.0000 0.12680  0.76162  0.85725  Biso   1.000  Hf
  Hf39     1.0000 0.39868  0.73296  0.61440  Biso   1.000  Hf
  Hf40     1.0000 0.38878  0.50005  0.87513  Biso   1.000  Hf
  Hf41     1.0000 0.02466  0.64888  0.48918  Biso   1.000  Hf
  Hf42     1.0000 0.03660  0.61381  0.73907  Biso   1.000  Hf
  Hf43     1.0000 0.98141  0.86492  0.73618  Biso   1.000  Hf
  Hf44     1.0000 0.00117  0.89601  0.48485  Biso   1.000  Hf
  Hf45     1.0000 0.28968  0.68019  0.78046  Biso   1.000  Hf
  Hf46     1.0000 0.27045  0.61968  0.51182  Biso   1.000  Hf
  Hf47     1.0000 0.25080  0.86624  0.54297  Biso   1.000  Hf
  Hf48     1.0000 0.20955  0.93124  0.79345  Biso   1.000  Hf
  Hf49     1.0000 0.60851  0.97096  0.11816  Biso   1.000  Hf
  Hf50     1.0000 0.61570  0.25243  0.38457  Biso   1.000  Hf
  Hf51     1.0000 0.87710  0.20584  0.11752  Biso   1.000  Hf
  Hf52     1.0000 0.84919  0.01370  0.38561  Biso   1.000  Hf
  Hf53     1.0000 0.49959  0.12500  0.99634  Biso   1.000  Hf
  Hf54     1.0000 0.48481  0.07911  0.23945  Biso   1.000  Hf
  Hf55     1.0000 0.45293  0.32839  0.27061  Biso   1.000  Hf
  Hf56     1.0000 0.49992  0.38045  0.01274  Biso   1.000  Hf
  Hf57     1.0000 0.73948  0.14963  0.26134  Biso   1.000  Hf
  Hf58     1.0000 0.74952  0.07712  0.01030  Biso   1.000  Hf
  Hf59     1.0000 0.72849  0.32425  0.03525  Biso   1.000  Hf
  Hf60     1.0000 0.69964  0.40176  0.27773  Biso   1.000  Hf
  Hf61     1.0000 0.59720  0.99787  0.61262  Biso   1.000  Hf
  Hf62     1.0000 0.62763  0.23825  0.89807  Biso   1.000  Hf
  Hf63     1.0000 0.89389  0.27502  0.64472  Biso   1.000  Hf
  Hf64     1.0000 0.87116  0.00646  0.86118  Biso   1.000  Hf
  Hf65     1.0000 0.47120  0.14567  0.50216  Biso   1.000  Hf
  Hf66     1.0000 0.51225  0.11823  0.74997  Biso   1.000  Hf
  Hf67     1.0000 0.53809  0.36504  0.75723  Biso   1.000  Hf
  Hf68     1.0000 0.50385  0.39419  0.50526  Biso   1.000  Hf
  Hf69     1.0000 0.77303  0.18231  0.77532  Biso   1.000  Hf
  Hf70     1.0000 0.71892  0.10462  0.50557  Biso   1.000  Hf
  Hf71     1.0000 0.74784  0.34683  0.50982  Biso   1.000  Hf
  Hf72     1.0000 0.79629  0.43549  0.73173  Biso   1.000  Hf
  Hf73     1.0000 0.63331  0.48956  0.10677  Biso   1.000  Hf
  Hf74     1.0000 0.64313  0.75691  0.38077  Biso   1.000  Hf
  Hf75     1.0000 0.86323  0.73258  0.12171  Biso   1.000  Hf
  Hf76     1.0000 0.85206  0.48271  0.35897  Biso   1.000  Hf
  Hf77     1.0000 0.52539  0.63382  0.97707  Biso   1.000  Hf
  Hf78     1.0000 0.48630  0.56893  0.21744  Biso   1.000  Hf
  Hf79     1.0000 0.51897  0.82398  0.23200  Biso   1.000  Hf
  Hf80     1.0000 0.47400  0.88481  0.99079  Biso   1.000  Hf
  Hf81     1.0000 0.72912  0.64080  0.24983  Biso   1.000  Hf
  Hf82     1.0000 0.78190  0.57688  0.00924  Biso   1.000  Hf
  Hf83     1.0000 0.71173  0.82361  0.01623  Biso   1.000  Hf
  Hf84     1.0000 0.76137  0.89052  0.25634  Biso   1.000  Hf
  Hf85     1.0000 0.63574  0.49338  0.61176  Biso   1.000  Hf
  Hf86     1.0000 0.62720  0.76125  0.85273  Biso   1.000  Hf
  Hf87     1.0000 0.89576  0.74075  0.60704  Biso   1.000  Hf
  Hf88     1.0000 0.90672  0.51900  0.86817  Biso   1.000  Hf
  Hf89     1.0000 0.51776  0.63572  0.47999  Biso   1.000  Hf
  Hf90     1.0000 0.53412  0.61649  0.73335  Biso   1.000  Hf
  Hf91     1.0000 0.47814  0.86804  0.73767  Biso   1.000  Hf
  Hf92     1.0000 0.49697  0.88887  0.48315  Biso   1.000  Hf
  Hf93     1.0000 0.78736  0.68159  0.76594  Biso   1.000  Hf
  Hf94     1.0000 0.77068  0.60853  0.50455  Biso   1.000  Hf
  Hf95     1.0000 0.75028  0.86045  0.51354  Biso   1.000  Hf
  Hf96     1.0000 0.71564  0.93040  0.76972  Biso   1.000  Hf
  Pb1      1.0000 0.11279  0.37440  0.09765  Biso   1.000  Pb
