data_image0
_cell_length_a       10.0468
_cell_length_b       5.19861
_cell_length_c       10.2469
_cell_angle_alpha    89.3617
_cell_angle_beta     95.3468
_cell_angle_gamma    90.0147

_symmetry_space_group_name_H-M    "P 1"
_symmetry_int_tables_number       1

loop_
  _symmetry_equiv_pos_as_xyz
  'x, y, z'

loop_
  _atom_site_label
  _atom_site_occupancy
  _atom_site_fract_x
  _atom_site_fract_y
  _atom_site_fract_z
  _atom_site_thermal_displace_type
  _atom_site_B_iso_or_equiv
  _atom_site_type_symbol
  Hf1      1.0000 0.14056  0.05550  0.10483  Biso   1.000  Hf
  Hf2      1.0000 0.14069  0.46291  0.35987  Biso   1.000  Hf
  Hf3      1.0000 0.36598  0.53888  0.12395  Biso   1.000  Hf
  Hf4      1.0000 0.36803  0.96571  0.37426  Biso   1.000  Hf
  Hf5      1.0000 0.02491  0.31300  0.19871  Biso   1.000  Hf
  Hf6      1.0000 0.03690  0.15742  0.43239  Biso   1.000  Hf
  Hf7      1.0000 0.46291  0.87274  0.19985  Biso   1.000  Hf
  Hf8      1.0000 0.46344  0.62992  0.45020  Biso   1.000  Hf
  Hf9      1.0000 0.27567  0.25520  0.24517  Biso   1.000  Hf
  Hf10     1.0000 0.27763  0.25519  0.49457  Biso   1.000  Hf
  Hf11     1.0000 0.23126  0.76008  0.48645  Biso   1.000  Hf
  Hf12     1.0000 0.23234  0.75314  0.24024  Biso   1.000  Hf
  Hf13     1.0000 0.14194  0.03161  0.60489  Biso   1.000  Hf
  Hf14     1.0000 0.14785  0.44448  0.84524  Biso   1.000  Hf
  Hf15     1.0000 0.37220  0.53361  0.62371  Biso   1.000  Hf
  Hf16     1.0000 0.37386  0.95774  0.87455  Biso   1.000  Hf
  Hf17     1.0000 0.03818  0.33644  0.67498  Biso   1.000  Hf
  Hf18     1.0000 0.04045  0.13276  0.92063  Biso   1.000  Hf
  Hf19     1.0000 0.46794  0.86433  0.69958  Biso   1.000  Hf
  Hf20     1.0000 0.46654  0.62301  0.95011  Biso   1.000  Hf
  Hf21     1.0000 0.28161  0.23178  0.74090  Biso   1.000  Hf
  Hf22     1.0000 0.28650  0.24695  0.99132  Biso   1.000  Hf
  Hf23     1.0000 0.23796  0.76370  0.98557  Biso   1.000  Hf
  Hf24     1.0000 0.23481  0.73064  0.73435  Biso   1.000  Hf
  Hf25     1.0000 0.63325  0.03803  0.14839  Biso   1.000  Hf
  Hf26     1.0000 0.63305  0.46061  0.40101  Biso   1.000  Hf
  Hf27     1.0000 0.84850  0.53877  0.17962  Biso   1.000  Hf
  Hf28     1.0000 0.86255  0.95879  0.42316  Biso   1.000  Hf
  Hf29     1.0000 0.53863  0.37088  0.20725  Biso   1.000  Hf
  Hf30     1.0000 0.53929  0.12869  0.45894  Biso   1.000  Hf
  Hf31     1.0000 0.94465  0.89264  0.11685  Biso   1.000  Hf
  Hf32     1.0000 0.96307  0.65546  0.35459  Biso   1.000  Hf
  Hf33     1.0000 0.76843  0.23607  0.29060  Biso   1.000  Hf
  Hf34     1.0000 0.77357  0.26244  0.53868  Biso   1.000  Hf
  Hf35     1.0000 0.72568  0.74241  0.53237  Biso   1.000  Hf
  Hf36     1.0000 0.72030  0.75807  0.28452  Biso   1.000  Hf
  Hf37     1.0000 0.63769  0.03383  0.64947  Biso   1.000  Hf
  Hf38     1.0000 0.63617  0.46182  0.89851  Biso   1.000  Hf
  Hf39     1.0000 0.86274  0.53619  0.67240  Biso   1.000  Hf
  Hf40     1.0000 0.86084  0.95944  0.92355  Biso   1.000  Hf
  Hf41     1.0000 0.54203  0.36600  0.70611  Biso   1.000  Hf
  Hf42     1.0000 0.54287  0.12401  0.95527  Biso   1.000  Hf
  Hf43     1.0000 0.96588  0.83923  0.60233  Biso   1.000  Hf
  Hf44     1.0000 0.96935  0.65279  0.84823  Biso   1.000  Hf
  Hf45     1.0000 0.77483  0.23163  0.78871  Biso   1.000  Hf
  Hf46     1.0000 0.77020  0.26722  0.03799  Biso   1.000  Hf
  Hf47     1.0000 0.72138  0.74202  0.03168  Biso   1.000  Hf
  Hf48     1.0000 0.72823  0.75025  0.78217  Biso   1.000  Hf
  Pd1      1.0000 0.06194  0.57829  0.05801  Biso   1.000  Pd
