data_image0
_cell_length_a       5.07233
_cell_length_b       10.3694
_cell_length_c       10.1389
_cell_angle_alpha    87.8386
_cell_angle_beta     88.3884
_cell_angle_gamma    91.0804

_symmetry_space_group_name_H-M    "P 1"
_symmetry_int_tables_number       1

loop_
  _symmetry_equiv_pos_as_xyz
  'x, y, z'

loop_
  _atom_site_label
  _atom_site_occupancy
  _atom_site_fract_x
  _atom_site_fract_y
  _atom_site_fract_z
  _atom_site_thermal_displace_type
  _atom_site_B_iso_or_equiv
  _atom_site_type_symbol
  Hf1      1.0000 0.24516  0.95675  0.12497  Biso   1.000  Hf
  Hf2      1.0000 0.30154  0.24378  0.37569  Biso   1.000  Hf
  Hf3      1.0000 0.73908  0.29422  0.13044  Biso   1.000  Hf
  Hf4      1.0000 0.78832  0.99639  0.37635  Biso   1.000  Hf
  Hf5      1.0000 0.85579  0.17879  0.97695  Biso   1.000  Hf
  Hf6      1.0000 0.13464  0.07625  0.27936  Biso   1.000  Hf
  Hf7      1.0000 0.01272  0.36681  0.26476  Biso   1.000  Hf
  Hf8      1.0000 0.94731  0.42889  0.00622  Biso   1.000  Hf
  Hf9      1.0000 0.64857  0.16458  0.28345  Biso   1.000  Hf
  Hf10     1.0000 0.35818  0.07244  0.95849  Biso   1.000  Hf
  Hf11     1.0000 0.42556  0.34556  0.01082  Biso   1.000  Hf
  Hf12     1.0000 0.50353  0.41445  0.25342  Biso   1.000  Hf
  Hf13     1.0000 0.26138  0.00661  0.64052  Biso   1.000  Hf
  Hf14     1.0000 0.21048  0.24877  0.86314  Biso   1.000  Hf
  Hf15     1.0000 0.77293  0.23554  0.61473  Biso   1.000  Hf
  Hf16     1.0000 0.70888  0.01358  0.88767  Biso   1.000  Hf
  Hf17     1.0000 0.04304  0.14291  0.50727  Biso   1.000  Hf
  Hf18     1.0000 0.98281  0.10171  0.75020  Biso   1.000  Hf
  Hf19     1.0000 0.94037  0.35175  0.75328  Biso   1.000  Hf
  Hf20     1.0000 0.02066  0.38806  0.50707  Biso   1.000  Hf
  Hf21     1.0000 0.47758  0.15778  0.74035  Biso   1.000  Hf
  Hf22     1.0000 0.53995  0.09033  0.50869  Biso   1.000  Hf
  Hf23     1.0000 0.52309  0.34865  0.50694  Biso   1.000  Hf
  Hf24     1.0000 0.43314  0.40399  0.76427  Biso   1.000  Hf
  Hf25     1.0000 0.22523  0.51762  0.12652  Biso   1.000  Hf
  Hf26     1.0000 0.28738  0.75543  0.38585  Biso   1.000  Hf
  Hf27     1.0000 0.74810  0.75041  0.12714  Biso   1.000  Hf
  Hf28     1.0000 0.77234  0.49000  0.38649  Biso   1.000  Hf
  Hf29     1.0000 0.02699  0.67476  0.00222  Biso   1.000  Hf
  Hf30     1.0000 0.91470  0.59788  0.23317  Biso   1.000  Hf
  Hf31     1.0000 0.00774  0.83851  0.25936  Biso   1.000  Hf
  Hf32     1.0000 0.91690  0.92012  0.02669  Biso   1.000  Hf
  Hf33     1.0000 0.41265  0.66745  0.22128  Biso   1.000  Hf
  Hf34     1.0000 0.50406  0.59575  0.98381  Biso   1.000  Hf
  Hf35     1.0000 0.46985  0.84301  0.99847  Biso   1.000  Hf
  Hf36     1.0000 0.53399  0.89993  0.25125  Biso   1.000  Hf
  Hf37     1.0000 0.25023  0.50078  0.61652  Biso   1.000  Hf
  Hf38     1.0000 0.29065  0.73655  0.86126  Biso   1.000  Hf
  Hf39     1.0000 0.80689  0.76420  0.63075  Biso   1.000  Hf
  Hf40     1.0000 0.73125  0.49809  0.85472  Biso   1.000  Hf
  Hf41     1.0000 0.99316  0.64253  0.49722  Biso   1.000  Hf
  Hf42     1.0000 0.02294  0.60502  0.74960  Biso   1.000  Hf
  Hf43     1.0000 0.04542  0.85504  0.75684  Biso   1.000  Hf
  Hf44     1.0000 0.06185  0.89591  0.50560  Biso   1.000  Hf
  Hf45     1.0000 0.52966  0.64328  0.72750  Biso   1.000  Hf
  Hf46     1.0000 0.47320  0.59287  0.47291  Biso   1.000  Hf
  Hf47     1.0000 0.57208  0.84115  0.49088  Biso   1.000  Hf
  Hf48     1.0000 0.54217  0.89659  0.74303  Biso   1.000  Hf
  Pd1      1.0000 0.22964  0.20174  0.12798  Biso   1.000  Pd
