data_image0
_cell_length_a       10.1779
_cell_length_b       5.2518
_cell_length_c       10.3358
_cell_angle_alpha    89.4726
_cell_angle_beta     89.9289
_cell_angle_gamma    79.8422

_symmetry_space_group_name_H-M    "P 1"
_symmetry_int_tables_number       1

loop_
  _symmetry_equiv_pos_as_xyz
  'x, y, z'

loop_
  _atom_site_label
  _atom_site_occupancy
  _atom_site_fract_x
  _atom_site_fract_y
  _atom_site_fract_z
  _atom_site_thermal_displace_type
  _atom_site_B_iso_or_equiv
  _atom_site_type_symbol
  Hf1      1.0000 0.10657  0.94412  0.09605  Biso   1.000  Hf
  Hf2      1.0000 0.11045  0.46974  0.40534  Biso   1.000  Hf
  Hf3      1.0000 0.39994  0.55736  0.14400  Biso   1.000  Hf
  Hf4      1.0000 0.38717  0.04671  0.35462  Biso   1.000  Hf
  Hf5      1.0000 0.96400  0.25460  0.99862  Biso   1.000  Hf
  Hf6      1.0000 0.02028  0.22655  0.24483  Biso   1.000  Hf
  Hf7      1.0000 0.01746  0.73728  0.26069  Biso   1.000  Hf
  Hf8      1.0000 0.97123  0.75779  0.99395  Biso   1.000  Hf
  Hf9      1.0000 0.30171  0.43785  0.31806  Biso   1.000  Hf
  Hf10     1.0000 0.21150  0.08596  0.94824  Biso   1.000  Hf
  Hf11     1.0000 0.23100  0.61887  0.01557  Biso   1.000  Hf
  Hf12     1.0000 0.28139  0.90765  0.20697  Biso   1.000  Hf
  Hf13     1.0000 0.10982  0.96293  0.60513  Biso   1.000  Hf
  Hf14     1.0000 0.10749  0.44963  0.89378  Biso   1.000  Hf
  Hf15     1.0000 0.38782  0.54277  0.64747  Biso   1.000  Hf
  Hf16     1.0000 0.38735  0.04472  0.85135  Biso   1.000  Hf
  Hf17     1.0000 0.97207  0.27612  0.50412  Biso   1.000  Hf
  Hf18     1.0000 0.02360  0.23276  0.74463  Biso   1.000  Hf
  Hf19     1.0000 0.02287  0.73277  0.75349  Biso   1.000  Hf
  Hf20     1.0000 0.97191  0.77725  0.49931  Biso   1.000  Hf
  Hf21     1.0000 0.28191  0.40245  0.78757  Biso   1.000  Hf
  Hf22     1.0000 0.21208  0.09578  0.45547  Biso   1.000  Hf
  Hf23     1.0000 0.21062  0.59617  0.54987  Biso   1.000  Hf
  Hf24     1.0000 0.28520  0.90949  0.70513  Biso   1.000  Hf
  Hf25     1.0000 0.61268  0.96549  0.10257  Biso   1.000  Hf
  Hf26     1.0000 0.60856  0.46066  0.39719  Biso   1.000  Hf
  Hf27     1.0000 0.88698  0.53820  0.14541  Biso   1.000  Hf
  Hf28     1.0000 0.88410  0.04545  0.35393  Biso   1.000  Hf
  Hf29     1.0000 0.47512  0.27702  0.00231  Biso   1.000  Hf
  Hf30     1.0000 0.52646  0.23563  0.24399  Biso   1.000  Hf
  Hf31     1.0000 0.52817  0.74081  0.25458  Biso   1.000  Hf
  Hf32     1.0000 0.47673  0.77911  0.99635  Biso   1.000  Hf
  Hf33     1.0000 0.78109  0.40990  0.29284  Biso   1.000  Hf
  Hf34     1.0000 0.71357  0.09031  0.95368  Biso   1.000  Hf
  Hf35     1.0000 0.71333  0.59089  0.04291  Biso   1.000  Hf
  Hf36     1.0000 0.78432  0.90915  0.20541  Biso   1.000  Hf
  Hf37     1.0000 0.60820  0.95943  0.60350  Biso   1.000  Hf
  Hf38     1.0000 0.61202  0.46040  0.89539  Biso   1.000  Hf
  Hf39     1.0000 0.88565  0.54602  0.64558  Biso   1.000  Hf
  Hf40     1.0000 0.88637  0.03954  0.85111  Biso   1.000  Hf
  Hf41     1.0000 0.47335  0.26922  0.50601  Biso   1.000  Hf
  Hf42     1.0000 0.52547  0.23253  0.74606  Biso   1.000  Hf
  Hf43     1.0000 0.52392  0.73163  0.75386  Biso   1.000  Hf
  Hf44     1.0000 0.47117  0.77280  0.49532  Biso   1.000  Hf
  Hf45     1.0000 0.78308  0.40740  0.79037  Biso   1.000  Hf
  Hf46     1.0000 0.71170  0.09291  0.45680  Biso   1.000  Hf
  Hf47     1.0000 0.71228  0.59354  0.54188  Biso   1.000  Hf
  Hf48     1.0000 0.78123  0.90873  0.70541  Biso   1.000  Hf
  Pd1      1.0000 0.17834  0.37953  0.15662  Biso   1.000  Pd
