data_image0
_cell_length_a       10.0267
_cell_length_b       5.09603
_cell_length_c       10.4392
_cell_angle_alpha    90.0293
_cell_angle_beta     90.4886
_cell_angle_gamma    89.4075

_symmetry_space_group_name_H-M    "P 1"
_symmetry_int_tables_number       1

loop_
  _symmetry_equiv_pos_as_xyz
  'x, y, z'

loop_
  _atom_site_label
  _atom_site_occupancy
  _atom_site_fract_x
  _atom_site_fract_y
  _atom_site_fract_z
  _atom_site_thermal_displace_type
  _atom_site_B_iso_or_equiv
  _atom_site_type_symbol
  Pd1      1.0000 0.12482  0.02219  0.19062  Biso   1.000  Pd
  Hf1      1.0000 0.13857  0.03997  0.67036  Biso   1.000  Hf
  Hf2      1.0000 0.13813  0.45940  0.42012  Biso   1.000  Hf
  Hf3      1.0000 0.14310  0.45637  0.92236  Biso   1.000  Hf
  Hf4      1.0000 0.35729  0.55042  0.16567  Biso   1.000  Hf
  Hf5      1.0000 0.36189  0.54444  0.67194  Biso   1.000  Hf
  Hf6      1.0000 0.36037  0.96053  0.42002  Biso   1.000  Hf
  Hf7      1.0000 0.36107  0.96693  0.92279  Biso   1.000  Hf
  Hf8      1.0000 0.63949  0.04131  0.07737  Biso   1.000  Hf
  Hf9      1.0000 0.63753  0.04100  0.58064  Biso   1.000  Hf
  Hf10     1.0000 0.63465  0.45526  0.32753  Biso   1.000  Hf
  Hf11     1.0000 0.63993  0.45970  0.82977  Biso   1.000  Hf
  Hf12     1.0000 0.86635  0.52812  0.08104  Biso   1.000  Hf
  Hf13     1.0000 0.85992  0.53914  0.58030  Biso   1.000  Hf
  Hf14     1.0000 0.85371  0.95306  0.33138  Biso   1.000  Hf
  Hf15     1.0000 0.86498  0.95417  0.83173  Biso   1.000  Hf
  O1       1.0000 0.04406  0.31791  0.08858  Biso   1.000  O
  O2       1.0000 0.03106  0.32112  0.57824  Biso   1.000  O
  O3       1.0000 0.02905  0.16985  0.33434  Biso   1.000  O
  O4       1.0000 0.03493  0.17128  0.83270  Biso   1.000  O
  O5       1.0000 0.46826  0.83644  0.08399  Biso   1.000  O
  O6       1.0000 0.46464  0.83871  0.58501  Biso   1.000  O
  O7       1.0000 0.45936  0.65802  0.33660  Biso   1.000  O
  O8       1.0000 0.46825  0.67083  0.83329  Biso   1.000  O
  O9       1.0000 0.27201  0.24099  0.28487  Biso   1.000  O
  O10      1.0000 0.27617  0.24409  0.78718  Biso   1.000  O
  O11      1.0000 0.30004  0.30325  0.02492  Biso   1.000  O
  O12      1.0000 0.27617  0.25505  0.54004  Biso   1.000  O
  O13      1.0000 0.21622  0.74789  0.29423  Biso   1.000  O
  O14      1.0000 0.22502  0.74647  0.79708  Biso   1.000  O
  O15      1.0000 0.21873  0.79205  0.04918  Biso   1.000  O
  O16      1.0000 0.22285  0.75183  0.54382  Biso   1.000  O
  O17      1.0000 0.53455  0.33864  0.16308  Biso   1.000  O
  O18      1.0000 0.53523  0.33861  0.66320  Biso   1.000  O
  O19      1.0000 0.53315  0.15999  0.41273  Biso   1.000  O
  O20      1.0000 0.53918  0.16160  0.91154  Biso   1.000  O
  O21      1.0000 0.95999  0.83432  0.16695  Biso   1.000  O
  O22      1.0000 0.96916  0.82012  0.67047  Biso   1.000  O
  O23      1.0000 0.96516  0.67056  0.41842  Biso   1.000  O
  O24      1.0000 0.96935  0.66388  0.92292  Biso   1.000  O
  O25      1.0000 0.78028  0.24452  0.95691  Biso   1.000  O
  O26      1.0000 0.77449  0.24462  0.45609  Biso   1.000  O
  O27      1.0000 0.77567  0.24817  0.20657  Biso   1.000  O
  O28      1.0000 0.77797  0.25049  0.70639  Biso   1.000  O
  O29      1.0000 0.72688  0.74275  0.95717  Biso   1.000  O
  O30      1.0000 0.72039  0.74334  0.45655  Biso   1.000  O
  O31      1.0000 0.72478  0.74717  0.20667  Biso   1.000  O
  O32      1.0000 0.72514  0.75343  0.70661  Biso   1.000  O
