data_image0
_cell_length_a       10.1299
_cell_length_b       10.3417
_cell_length_c       5.07302
_cell_angle_alpha    90.6409
_cell_angle_beta     87.4692
_cell_angle_gamma    91.5245

_symmetry_space_group_name_H-M    "P 1"
_symmetry_int_tables_number       1

loop_
  _symmetry_equiv_pos_as_xyz
  'x, y, z'

loop_
  _atom_site_label
  _atom_site_occupancy
  _atom_site_fract_x
  _atom_site_fract_y
  _atom_site_fract_z
  _atom_site_thermal_displace_type
  _atom_site_B_iso_or_equiv
  _atom_site_type_symbol
  Hf1      1.0000 0.11185  0.95708  0.27103  Biso   1.000  Hf
  Hf2      1.0000 0.12686  0.29521  0.77320  Biso   1.000  Hf
  Hf3      1.0000 0.37517  0.25594  0.29905  Biso   1.000  Hf
  Hf4      1.0000 0.35633  0.01417  0.80363  Biso   1.000  Hf
  Hf5      1.0000 0.98144  0.15763  0.87312  Biso   1.000  Hf
  Hf6      1.0000 0.94739  0.06689  0.37793  Biso   1.000  Hf
  Hf7      1.0000 0.00413  0.34561  0.47366  Biso   1.000  Hf
  Hf8      1.0000 0.00222  0.41581  0.99568  Biso   1.000  Hf
  Hf9      1.0000 0.28291  0.18292  0.66227  Biso   1.000  Hf
  Hf10     1.0000 0.26470  0.08974  0.14736  Biso   1.000  Hf
  Hf11     1.0000 0.26507  0.37619  0.03035  Biso   1.000  Hf
  Hf12     1.0000 0.25846  0.42230  0.52378  Biso   1.000  Hf
  Hf13     1.0000 0.13460  0.51973  0.25617  Biso   1.000  Hf
  Hf14     1.0000 0.12648  0.74716  0.75726  Biso   1.000  Hf
  Hf15     1.0000 0.38876  0.74187  0.20465  Biso   1.000  Hf
  Hf16     1.0000 0.39820  0.49082  0.77817  Biso   1.000  Hf
  Hf17     1.0000 0.02693  0.66410  0.08505  Biso   1.000  Hf
  Hf18     1.0000 0.02443  0.58740  0.58217  Biso   1.000  Hf
  Hf19     1.0000 0.98782  0.83239  0.50091  Biso   1.000  Hf
  Hf20     1.0000 0.99447  0.89176  0.97477  Biso   1.000  Hf
  Hf21     1.0000 0.24237  0.67680  0.44539  Biso   1.000  Hf
  Hf22     1.0000 0.26433  0.61303  0.95555  Biso   1.000  Hf
  Hf23     1.0000 0.24902  0.85275  0.03565  Biso   1.000  Hf
  Hf24     1.0000 0.21861  0.92269  0.58568  Biso   1.000  Hf
  Hf25     1.0000 0.61126  0.00363  0.24875  Biso   1.000  Hf
  Hf26     1.0000 0.61663  0.23371  0.75443  Biso   1.000  Hf
  Hf27     1.0000 0.86327  0.24176  0.20435  Biso   1.000  Hf
  Hf28     1.0000 0.87497  0.99203  0.73183  Biso   1.000  Hf
  Hf29     1.0000 0.49688  0.14489  0.03292  Biso   1.000  Hf
  Hf30     1.0000 0.49208  0.09611  0.52561  Biso   1.000  Hf
  Hf31     1.0000 0.51025  0.35675  0.53062  Biso   1.000  Hf
  Hf32     1.0000 0.50901  0.38868  0.03246  Biso   1.000  Hf
  Hf33     1.0000 0.72274  0.15515  0.44686  Biso   1.000  Hf
  Hf34     1.0000 0.73889  0.09315  0.96147  Biso   1.000  Hf
  Hf35     1.0000 0.75663  0.34168  0.93895  Biso   1.000  Hf
  Hf36     1.0000 0.76594  0.39745  0.43486  Biso   1.000  Hf
  Hf37     1.0000 0.63341  0.50129  0.25129  Biso   1.000  Hf
  Hf38     1.0000 0.61545  0.76403  0.69919  Biso   1.000  Hf
  Hf39     1.0000 0.86131  0.75253  0.21789  Biso   1.000  Hf
  Hf40     1.0000 0.86811  0.48781  0.72437  Biso   1.000  Hf
  Hf41     1.0000 0.52188  0.63716  0.97505  Biso   1.000  Hf
  Hf42     1.0000 0.49855  0.60677  0.47710  Biso   1.000  Hf
  Hf43     1.0000 0.49316  0.85386  0.45647  Biso   1.000  Hf
  Hf44     1.0000 0.49965  0.89363  0.96253  Biso   1.000  Hf
  Hf45     1.0000 0.75363  0.64380  0.51041  Biso   1.000  Hf
  Hf46     1.0000 0.77652  0.59127  0.01927  Biso   1.000  Hf
  Hf47     1.0000 0.74836  0.84315  0.95845  Biso   1.000  Hf
  Hf48     1.0000 0.74004  0.89739  0.46782  Biso   1.000  Hf
  Pd1      1.0000 0.11868  0.20468  0.28472  Biso   1.000  Pd
