data_image0
_cell_length_a       10.0443
_cell_length_b       10.2632
_cell_length_c       10.4772
_cell_angle_alpha    89.7737
_cell_angle_beta     90.2635
_cell_angle_gamma    90.0113

_symmetry_space_group_name_H-M    "P 1"
_symmetry_int_tables_number       1

loop_
  _symmetry_equiv_pos_as_xyz
  'x, y, z'

loop_
  _atom_site_label
  _atom_site_occupancy
  _atom_site_fract_x
  _atom_site_fract_y
  _atom_site_fract_z
  _atom_site_thermal_displace_type
  _atom_site_B_iso_or_equiv
  _atom_site_type_symbol
  Hf1      1.0000 0.13769  0.02036  0.17179  Biso   1.000  Hf
  Hf2      1.0000 0.13727  0.22806  0.42468  Biso   1.000  Hf
  Hf3      1.0000 0.35065  0.26937  0.17949  Biso   1.000  Hf
  Hf4      1.0000 0.36309  0.47874  0.42151  Biso   1.000  Hf
  Hf5      1.0000 0.64103  0.01944  0.07410  Biso   1.000  Hf
  Hf6      1.0000 0.63935  0.22695  0.32945  Biso   1.000  Hf
  Hf7      1.0000 0.86171  0.27087  0.07834  Biso   1.000  Hf
  Hf8      1.0000 0.86342  0.47998  0.33062  Biso   1.000  Hf
  O1       1.0000 0.03359  0.16537  0.08410  Biso   1.000  O
  O2       1.0000 0.03184  0.08511  0.33396  Biso   1.000  O
  O3       1.0000 0.44912  0.44357  0.10360  Biso   1.000  O
  O4       1.0000 0.46658  0.33183  0.33447  Biso   1.000  O
  O5       1.0000 0.27179  0.12461  0.29869  Biso   1.000  O
  O6       1.0000 0.27576  0.12408  0.04611  Biso   1.000  O
  O7       1.0000 0.22079  0.37490  0.29862  Biso   1.000  O
  O8       1.0000 0.22192  0.37460  0.04575  Biso   1.000  O
  O9       1.0000 0.51833  0.14125  0.18305  Biso   1.000  O
  O10      1.0000 0.53273  0.08567  0.42172  Biso   1.000  O
  O11      1.0000 0.96816  0.41505  0.16755  Biso   1.000  O
  O12      1.0000 0.96771  0.33540  0.41868  Biso   1.000  O
  O13      1.0000 0.77657  0.12395  0.45398  Biso   1.000  O
  O14      1.0000 0.77525  0.12697  0.20491  Biso   1.000  O
  O15      1.0000 0.72412  0.37301  0.45676  Biso   1.000  O
  O16      1.0000 0.72816  0.38239  0.21105  Biso   1.000  O
  Hf9      1.0000 0.14056  0.02020  0.67239  Biso   1.000  Hf
  Hf10     1.0000 0.13961  0.22768  0.92192  Biso   1.000  Hf
  Hf11     1.0000 0.36228  0.27122  0.67302  Biso   1.000  Hf
  Hf12     1.0000 0.36102  0.48090  0.92363  Biso   1.000  Hf
  Hf13     1.0000 0.63997  0.01952  0.57852  Biso   1.000  Hf
  Hf14     1.0000 0.64321  0.22347  0.82125  Biso   1.000  Hf
  Hf15     1.0000 0.86226  0.27112  0.57871  Biso   1.000  Hf
  Hf16     1.0000 0.86398  0.47941  0.82880  Biso   1.000  Hf
  O17      1.0000 0.03329  0.16440  0.58474  Biso   1.000  O
  O18      1.0000 0.03599  0.08254  0.83334  Biso   1.000  O
  O19      1.0000 0.46836  0.41509  0.58335  Biso   1.000  O
  O20      1.0000 0.47061  0.33562  0.83369  Biso   1.000  O
  O21      1.0000 0.27829  0.12358  0.79560  Biso   1.000  O
  O22      1.0000 0.27685  0.12562  0.54684  Biso   1.000  O
  O23      1.0000 0.22566  0.37316  0.79645  Biso   1.000  O
  O24      1.0000 0.22520  0.37537  0.54666  Biso   1.000  O
  O25      1.0000 0.53407  0.16523  0.66487  Biso   1.000  O
  O26      1.0000 0.53751  0.07200  0.90540  Biso   1.000  O
  O27      1.0000 0.96838  0.41506  0.66712  Biso   1.000  O
  O28      1.0000 0.96883  0.33396  0.91624  Biso   1.000  O
  O29      1.0000 0.78554  0.11970  0.94954  Biso   1.000  O
  O30      1.0000 0.77925  0.12272  0.70111  Biso   1.000  O
  O31      1.0000 0.72872  0.37723  0.95488  Biso   1.000  O
  O32      1.0000 0.72644  0.37439  0.70506  Biso   1.000  O
  Hf17     1.0000 0.13907  0.52163  0.17135  Biso   1.000  Hf
  Hf18     1.0000 0.13999  0.72886  0.42149  Biso   1.000  Hf
  Hf19     1.0000 0.36115  0.77307  0.17204  Biso   1.000  Hf
  Hf20     1.0000 0.36212  0.97892  0.42375  Biso   1.000  Hf
  Hf21     1.0000 0.63905  0.53003  0.08365  Biso   1.000  Hf
  Hf22     1.0000 0.63973  0.73189  0.33016  Biso   1.000  Hf
  Hf23     1.0000 0.86248  0.77160  0.07935  Biso   1.000  Hf
  Hf24     1.0000 0.86178  0.97924  0.32872  Biso   1.000  Hf
  O33      1.0000 0.03327  0.66514  0.08352  Biso   1.000  O
  O34      1.0000 0.03502  0.58564  0.33289  Biso   1.000  O
  O35      1.0000 0.46789  0.91303  0.08029  Biso   1.000  O
  O36      1.0000 0.46737  0.83630  0.33491  Biso   1.000  O
  O37      1.0000 0.27767  0.62449  0.29477  Biso   1.000  O
  O38      1.0000 0.27517  0.62846  0.04391  Biso   1.000  O
  O39      1.0000 0.22463  0.87484  0.29592  Biso   1.000  O
  O40      1.0000 0.22275  0.87604  0.04599  Biso   1.000  O
  O41      1.0000 0.53733  0.67546  0.16628  Biso   1.000  O
  O42      1.0000 0.53457  0.58422  0.41510  Biso   1.000  O
  O43      1.0000 0.96716  0.91586  0.16684  Biso   1.000  O
  O44      1.0000 0.96748  0.83378  0.41631  Biso   1.000  O
  O45      1.0000 0.77720  0.62401  0.45600  Biso   1.000  O
  O46      1.0000 0.77812  0.62944  0.20705  Biso   1.000  O
  O47      1.0000 0.72513  0.87447  0.45603  Biso   1.000  O
  O48      1.0000 0.72526  0.87763  0.20562  Biso   1.000  O
  Hf25     1.0000 0.14029  0.51986  0.67171  Biso   1.000  Hf
  Hf26     1.0000 0.13940  0.72898  0.92161  Biso   1.000  Hf
  Hf27     1.0000 0.36272  0.76913  0.67184  Biso   1.000  Hf
  Hf28     1.0000 0.36217  0.97665  0.92091  Biso   1.000  Hf
  Hf29     1.0000 0.64006  0.52018  0.57828  Biso   1.000  Hf
  Hf30     1.0000 0.63977  0.72780  0.82834  Biso   1.000  Hf
  Hf31     1.0000 0.86350  0.77015  0.57897  Biso   1.000  Hf
  Hf32     1.0000 0.86417  0.97656  0.82802  Biso   1.000  Hf
  O49      1.0000 0.03484  0.66443  0.58338  Biso   1.000  O
  O50      1.0000 0.03477  0.58442  0.83339  Biso   1.000  O
  O51      1.0000 0.46824  0.91403  0.58513  Biso   1.000  O
  O52      1.0000 0.46614  0.82891  0.83426  Biso   1.000  O
  O53      1.0000 0.27744  0.62227  0.79546  Biso   1.000  O
  O54      1.0000 0.27749  0.62480  0.54480  Biso   1.000  O
  O55      1.0000 0.22501  0.87258  0.79514  Biso   1.000  O
  O56      1.0000 0.22521  0.87532  0.54551  Biso   1.000  O
  O57      1.0000 0.53434  0.66387  0.66615  Biso   1.000  O
  O58      1.0000 0.53521  0.58204  0.91785  Biso   1.000  O
  O59      1.0000 0.96965  0.91381  0.66573  Biso   1.000  O
  O60      1.0000 0.96832  0.83393  0.91734  Biso   1.000  O
  O61      1.0000 0.77754  0.62516  0.95603  Biso   1.000  O
  O62      1.0000 0.77754  0.62461  0.70528  Biso   1.000  O
  O63      1.0000 0.72511  0.87195  0.95532  Biso   1.000  O
  O64      1.0000 0.72570  0.87370  0.70549  Biso   1.000  O
  Pd1      1.0000 0.57031  0.28041  0.05126  Biso   1.000  Pd
