data_image0
_cell_length_a       10.0665
_cell_length_b       10.5559
_cell_length_c       5.03214
_cell_angle_alpha    89.4249
_cell_angle_beta     89.0569
_cell_angle_gamma    90.1208

_symmetry_space_group_name_H-M    "P 1"
_symmetry_int_tables_number       1

loop_
  _symmetry_equiv_pos_as_xyz
  'x, y, z'

loop_
  _atom_site_label
  _atom_site_occupancy
  _atom_site_fract_x
  _atom_site_fract_y
  _atom_site_fract_z
  _atom_site_thermal_displace_type
  _atom_site_B_iso_or_equiv
  _atom_site_type_symbol
  Hf1      1.0000 0.13482  0.00516  0.23247  Biso   1.000  Hf
  Hf2      1.0000 0.13047  0.20948  0.72049  Biso   1.000  Hf
  Hf3      1.0000 0.37282  0.26716  0.26335  Biso   1.000  Hf
  Hf4      1.0000 0.37095  0.48889  0.75464  Biso   1.000  Hf
  Hf5      1.0000 0.01515  0.16303  0.39057  Biso   1.000  Hf
  Hf6      1.0000 0.03033  0.05615  0.89174  Biso   1.000  Hf
  Hf7      1.0000 0.47774  0.42698  0.42182  Biso   1.000  Hf
  Hf8      1.0000 0.47577  0.31891  0.92075  Biso   1.000  Hf
  Hf9      1.0000 0.26284  0.10109  0.47867  Biso   1.000  Hf
  Hf10     1.0000 0.27897  0.12648  0.97529  Biso   1.000  Hf
  Hf11     1.0000 0.26698  0.41942  0.08344  Biso   1.000  Hf
  Hf12     1.0000 0.25867  0.34686  0.59414  Biso   1.000  Hf
  Hf13     1.0000 0.12493  0.54152  0.23660  Biso   1.000  Hf
  Hf14     1.0000 0.13276  0.74154  0.74031  Biso   1.000  Hf
  Hf15     1.0000 0.37181  0.76367  0.24468  Biso   1.000  Hf
  Hf16     1.0000 0.37204  0.98360  0.74239  Biso   1.000  Hf
  Hf17     1.0000 0.02881  0.69215  0.39377  Biso   1.000  Hf
  Hf18     1.0000 0.03563  0.56953  0.87750  Biso   1.000  Hf
  Hf19     1.0000 0.46728  0.92845  0.38426  Biso   1.000  Hf
  Hf20     1.0000 0.46882  0.81839  0.89017  Biso   1.000  Hf
  Hf21     1.0000 0.26717  0.61397  0.49558  Biso   1.000  Hf
  Hf22     1.0000 0.26376  0.65018  0.98917  Biso   1.000  Hf
  Hf23     1.0000 0.23199  0.88522  0.97921  Biso   1.000  Hf
  Hf24     1.0000 0.23310  0.86079  0.48004  Biso   1.000  Hf
  Hf25     1.0000 0.63286  0.01477  0.25008  Biso   1.000  Hf
  Hf26     1.0000 0.63020  0.23278  0.75301  Biso   1.000  Hf
  Hf27     1.0000 0.85275  0.26539  0.24342  Biso   1.000  Hf
  Hf28     1.0000 0.86806  0.48182  0.74446  Biso   1.000  Hf
  Hf29     1.0000 0.53074  0.17426  0.41272  Biso   1.000  Hf
  Hf30     1.0000 0.53698  0.06421  0.89636  Biso   1.000  Hf
  Hf31     1.0000 0.95813  0.44161  0.37541  Biso   1.000  Hf
  Hf32     1.0000 0.95730  0.31185  0.85148  Biso   1.000  Hf
  Hf33     1.0000 0.76550  0.11364  0.49546  Biso   1.000  Hf
  Hf34     1.0000 0.76594  0.13481  0.99694  Biso   1.000  Hf
  Hf35     1.0000 0.73140  0.38548  0.00089  Biso   1.000  Hf
  Hf36     1.0000 0.72997  0.36385  0.50064  Biso   1.000  Hf
  Hf37     1.0000 0.63515  0.51535  0.25633  Biso   1.000  Hf
  Hf38     1.0000 0.63463  0.73112  0.75434  Biso   1.000  Hf
  Hf39     1.0000 0.86065  0.76749  0.24692  Biso   1.000  Hf
  Hf40     1.0000 0.86363  0.98152  0.74119  Biso   1.000  Hf
  Hf41     1.0000 0.53227  0.67911  0.40692  Biso   1.000  Hf
  Hf42     1.0000 0.53332  0.57126  0.91619  Biso   1.000  Hf
  Hf43     1.0000 0.96515  0.92777  0.39449  Biso   1.000  Hf
  Hf44     1.0000 0.96410  0.81662  0.89440  Biso   1.000  Hf
  Hf45     1.0000 0.76656  0.61533  0.50075  Biso   1.000  Hf
  Hf46     1.0000 0.77028  0.63412  0.99878  Biso   1.000  Hf
  Hf47     1.0000 0.73071  0.88363  0.99849  Biso   1.000  Hf
  Hf48     1.0000 0.72838  0.86504  0.49881  Biso   1.000  Hf
  Pd1      1.0000 0.11702  0.29972  0.18390  Biso   1.000  Pd
