data_image0
_cell_length_a       10.1339
_cell_length_b       10.4754
_cell_length_c       5.08568
_cell_angle_alpha    91.9848
_cell_angle_beta     87.165
_cell_angle_gamma    88.2772

_symmetry_space_group_name_H-M    "P 1"
_symmetry_int_tables_number       1

loop_
  _symmetry_equiv_pos_as_xyz
  'x, y, z'

loop_
  _atom_site_label
  _atom_site_occupancy
  _atom_site_fract_x
  _atom_site_fract_y
  _atom_site_fract_z
  _atom_site_thermal_displace_type
  _atom_site_B_iso_or_equiv
  _atom_site_type_symbol
  Hf1      1.0000 0.13926  0.94076  0.27875  Biso   1.000  Hf
  Hf2      1.0000 0.10776  0.28029  0.73599  Biso   1.000  Hf
  Hf3      1.0000 0.35628  0.22291  0.32046  Biso   1.000  Hf
  Hf4      1.0000 0.38841  0.00177  0.78993  Biso   1.000  Hf
  Hf5      1.0000 0.95406  0.17043  0.87834  Biso   1.000  Hf
  Hf6      1.0000 0.99109  0.06480  0.42011  Biso   1.000  Hf
  Hf7      1.0000 0.97435  0.37279  0.49607  Biso   1.000  Hf
  Hf8      1.0000 0.98865  0.42116  0.98879  Biso   1.000  Hf
  Hf9      1.0000 0.26907  0.14998  0.66491  Biso   1.000  Hf
  Hf10     1.0000 0.29826  0.04530  0.15372  Biso   1.000  Hf
  Hf11     1.0000 0.21750  0.31781  0.06865  Biso   1.000  Hf
  Hf12     1.0000 0.24503  0.39397  0.52666  Biso   1.000  Hf
  Hf13     1.0000 0.12256  0.50302  0.25156  Biso   1.000  Hf
  Hf14     1.0000 0.13150  0.73037  0.77447  Biso   1.000  Hf
  Hf15     1.0000 0.39983  0.76091  0.30317  Biso   1.000  Hf
  Hf16     1.0000 0.38380  0.50705  0.69691  Biso   1.000  Hf
  Hf17     1.0000 0.01420  0.65839  0.08284  Biso   1.000  Hf
  Hf18     1.0000 0.02843  0.59177  0.58019  Biso   1.000  Hf
  Hf19     1.0000 0.00735  0.83099  0.50858  Biso   1.000  Hf
  Hf20     1.0000 0.01306  0.89558  0.98543  Biso   1.000  Hf
  Hf21     1.0000 0.26699  0.63914  0.47109  Biso   1.000  Hf
  Hf22     1.0000 0.23681  0.56391  0.95028  Biso   1.000  Hf
  Hf23     1.0000 0.25542  0.80777  0.05483  Biso   1.000  Hf
  Hf24     1.0000 0.25809  0.88302  0.57435  Biso   1.000  Hf
  Hf25     1.0000 0.64178  0.02499  0.21402  Biso   1.000  Hf
  Hf26     1.0000 0.60733  0.24724  0.72891  Biso   1.000  Hf
  Hf27     1.0000 0.86034  0.29365  0.20640  Biso   1.000  Hf
  Hf28     1.0000 0.88962  0.99512  0.73563  Biso   1.000  Hf
  Hf29     1.0000 0.49477  0.15491  0.01209  Biso   1.000  Hf
  Hf30     1.0000 0.50288  0.10342  0.51176  Biso   1.000  Hf
  Hf31     1.0000 0.49637  0.35801  0.44186  Biso   1.000  Hf
  Hf32     1.0000 0.49164  0.39748  0.93254  Biso   1.000  Hf
  Hf33     1.0000 0.72879  0.18644  0.39531  Biso   1.000  Hf
  Hf34     1.0000 0.72429  0.10022  0.88791  Biso   1.000  Hf
  Hf35     1.0000 0.73850  0.36763  0.92968  Biso   1.000  Hf
  Hf36     1.0000 0.74811  0.43889  0.42840  Biso   1.000  Hf
  Hf37     1.0000 0.60454  0.49371  0.18754  Biso   1.000  Hf
  Hf38     1.0000 0.62462  0.75242  0.78791  Biso   1.000  Hf
  Hf39     1.0000 0.86561  0.76954  0.24341  Biso   1.000  Hf
  Hf40     1.0000 0.86108  0.51528  0.71831  Biso   1.000  Hf
  Hf41     1.0000 0.48996  0.64308  0.99512  Biso   1.000  Hf
  Hf42     1.0000 0.52185  0.61531  0.48996  Biso   1.000  Hf
  Hf43     1.0000 0.50761  0.85926  0.56485  Biso   1.000  Hf
  Hf44     1.0000 0.51190  0.89236  0.05506  Biso   1.000  Hf
  Hf45     1.0000 0.77939  0.68051  0.54961  Biso   1.000  Hf
  Hf46     1.0000 0.74321  0.61955  0.02809  Biso   1.000  Hf
  Hf47     1.0000 0.76097  0.86631  0.96624  Biso   1.000  Hf
  Hf48     1.0000 0.76713  0.92999  0.44742  Biso   1.000  Hf
  Pt1      1.0000 0.09775  0.18746  0.22748  Biso   1.000  Pt
