data_image0
_cell_length_a       10.0643
_cell_length_b       5.16311
_cell_length_c       10.5222
_cell_angle_alpha    89.347
_cell_angle_beta     90.1554
_cell_angle_gamma    90.1087

_symmetry_space_group_name_H-M    "P 1"
_symmetry_int_tables_number       1

loop_
  _symmetry_equiv_pos_as_xyz
  'x, y, z'

loop_
  _atom_site_label
  _atom_site_occupancy
  _atom_site_fract_x
  _atom_site_fract_y
  _atom_site_fract_z
  _atom_site_thermal_displace_type
  _atom_site_B_iso_or_equiv
  _atom_site_type_symbol
  Hf1      1.0000 0.13818  0.04302  0.17112  Biso   1.000  Hf
  Hf2      1.0000 0.13844  0.45661  0.42441  Biso   1.000  Hf
  Hf3      1.0000 0.34935  0.54703  0.17818  Biso   1.000  Hf
  Hf4      1.0000 0.36426  0.95889  0.42265  Biso   1.000  Hf
  Hf5      1.0000 0.64603  0.06280  0.07777  Biso   1.000  Hf
  Hf6      1.0000 0.64213  0.46358  0.33359  Biso   1.000  Hf
  Hf7      1.0000 0.86342  0.54204  0.08149  Biso   1.000  Hf
  Hf8      1.0000 0.86536  0.96265  0.33382  Biso   1.000  Hf
  O1       1.0000 0.03324  0.32865  0.08348  Biso   1.000  O
  O2       1.0000 0.03473  0.17474  0.33265  Biso   1.000  O
  O3       1.0000 0.45022  0.88141  0.09516  Biso   1.000  O
  O4       1.0000 0.46797  0.67299  0.33288  Biso   1.000  O
  O5       1.0000 0.27339  0.25272  0.29728  Biso   1.000  O
  O6       1.0000 0.27451  0.25445  0.04335  Biso   1.000  O
  O7       1.0000 0.22241  0.75334  0.29846  Biso   1.000  O
  O8       1.0000 0.22012  0.74985  0.04515  Biso   1.000  O
  O9       1.0000 0.51785  0.30067  0.18569  Biso   1.000  O
  O10      1.0000 0.53468  0.17352  0.42069  Biso   1.000  O
  O11      1.0000 0.97006  0.82843  0.16993  Biso   1.000  O
  O12      1.0000 0.96853  0.66971  0.42036  Biso   1.000  O
  O13      1.0000 0.77715  0.24888  0.45749  Biso   1.000  O
  O14      1.0000 0.77909  0.26212  0.21179  Biso   1.000  O
  O15      1.0000 0.72539  0.74655  0.45998  Biso   1.000  O
  O16      1.0000 0.73306  0.77692  0.21563  Biso   1.000  O
  Hf9      1.0000 0.14171  0.03815  0.67174  Biso   1.000  Hf
  Hf10     1.0000 0.13905  0.45553  0.92137  Biso   1.000  Hf
  Hf11     1.0000 0.36231  0.53863  0.67155  Biso   1.000  Hf
  Hf12     1.0000 0.36181  0.95736  0.91976  Biso   1.000  Hf
  Hf13     1.0000 0.64050  0.03708  0.57958  Biso   1.000  Hf
  Hf14     1.0000 0.63946  0.43980  0.82217  Biso   1.000  Hf
  Hf15     1.0000 0.86379  0.53979  0.58101  Biso   1.000  Hf
  Hf16     1.0000 0.86639  0.95384  0.82752  Biso   1.000  Hf
  O17      1.0000 0.03423  0.32553  0.58394  Biso   1.000  O
  O18      1.0000 0.03660  0.16694  0.83130  Biso   1.000  O
  O19      1.0000 0.46904  0.82652  0.58277  Biso   1.000  O
  O20      1.0000 0.46622  0.65724  0.83082  Biso   1.000  O
  O21      1.0000 0.27833  0.24344  0.79468  Biso   1.000  O
  O22      1.0000 0.27713  0.24853  0.54536  Biso   1.000  O
  O23      1.0000 0.22509  0.74353  0.79518  Biso   1.000  O
  O24      1.0000 0.22656  0.74964  0.54574  Biso   1.000  O
  O25      1.0000 0.53344  0.32601  0.66406  Biso   1.000  O
  O26      1.0000 0.54242  0.12469  0.90232  Biso   1.000  O
  O27      1.0000 0.97105  0.82593  0.66665  Biso   1.000  O
  O28      1.0000 0.96807  0.66817  0.91856  Biso   1.000  O
  O29      1.0000 0.79149  0.23480  0.95085  Biso   1.000  O
  O30      1.0000 0.77822  0.24142  0.70254  Biso   1.000  O
  O31      1.0000 0.72516  0.74895  0.95648  Biso   1.000  O
  O32      1.0000 0.72785  0.74243  0.70687  Biso   1.000  O
  Pt1      1.0000 0.58333  0.55514  0.05948  Biso   1.000  Pt
