data_image0
_cell_length_a       5.08569
_cell_length_b       10.4754
_cell_length_c       10.1339
_cell_angle_alpha    88.2775
_cell_angle_beta     87.1635
_cell_angle_gamma    91.9831

_symmetry_space_group_name_H-M    "P 1"
_symmetry_int_tables_number       1

loop_
  _symmetry_equiv_pos_as_xyz
  'x, y, z'

loop_
  _atom_site_label
  _atom_site_occupancy
  _atom_site_fract_x
  _atom_site_fract_y
  _atom_site_fract_z
  _atom_site_thermal_displace_type
  _atom_site_B_iso_or_equiv
  _atom_site_type_symbol
  Hf1      1.0000 0.27920  0.94075  0.13945  Biso   1.000  Hf
  Hf2      1.0000 0.32093  0.22291  0.35647  Biso   1.000  Hf
  Hf3      1.0000 0.73647  0.28028  0.10795  Biso   1.000  Hf
  Hf4      1.0000 0.79041  0.00175  0.38858  Biso   1.000  Hf
  Hf5      1.0000 0.87881  0.17041  0.95425  Biso   1.000  Hf
  Hf6      1.0000 0.15420  0.04531  0.29844  Biso   1.000  Hf
  Hf7      1.0000 0.06912  0.31780  0.21769  Biso   1.000  Hf
  Hf8      1.0000 0.98926  0.42116  0.98884  Biso   1.000  Hf
  Hf9      1.0000 0.66540  0.14996  0.26925  Biso   1.000  Hf
  Hf10     1.0000 0.42057  0.06480  0.99127  Biso   1.000  Hf
  Hf11     1.0000 0.49654  0.37279  0.97454  Biso   1.000  Hf
  Hf12     1.0000 0.52713  0.39396  0.24521  Biso   1.000  Hf
  Hf13     1.0000 0.21449  0.02498  0.64197  Biso   1.000  Hf
  Hf14     1.0000 0.20689  0.29364  0.86053  Biso   1.000  Hf
  Hf15     1.0000 0.72938  0.24722  0.60752  Biso   1.000  Hf
  Hf16     1.0000 0.73610  0.99512  0.88981  Biso   1.000  Hf
  Hf17     1.0000 0.01257  0.15490  0.49497  Biso   1.000  Hf
  Hf18     1.0000 0.88837  0.10021  0.72448  Biso   1.000  Hf
  Hf19     1.0000 0.93015  0.36761  0.73870  Biso   1.000  Hf
  Hf20     1.0000 0.93298  0.39748  0.49184  Biso   1.000  Hf
  Hf21     1.0000 0.39577  0.18643  0.72898  Biso   1.000  Hf
  Hf22     1.0000 0.51225  0.10341  0.50306  Biso   1.000  Hf
  Hf23     1.0000 0.44230  0.35800  0.49655  Biso   1.000  Hf
  Hf24     1.0000 0.42889  0.43887  0.74829  Biso   1.000  Hf
  Hf25     1.0000 0.25203  0.50301  0.12275  Biso   1.000  Hf
  Hf26     1.0000 0.30363  0.76090  0.40002  Biso   1.000  Hf
  Hf27     1.0000 0.77493  0.73036  0.13169  Biso   1.000  Hf
  Hf28     1.0000 0.69737  0.50704  0.38400  Biso   1.000  Hf
  Hf29     1.0000 0.08334  0.65838  0.01440  Biso   1.000  Hf
  Hf30     1.0000 0.95074  0.56390  0.23701  Biso   1.000  Hf
  Hf31     1.0000 0.05525  0.80778  0.25563  Biso   1.000  Hf
  Hf32     1.0000 0.98589  0.89556  0.01325  Biso   1.000  Hf
  Hf33     1.0000 0.47153  0.63914  0.26717  Biso   1.000  Hf
  Hf34     1.0000 0.58068  0.59176  0.02862  Biso   1.000  Hf
  Hf35     1.0000 0.50905  0.83098  0.00753  Biso   1.000  Hf
  Hf36     1.0000 0.57477  0.88301  0.25828  Biso   1.000  Hf
  Hf37     1.0000 0.18800  0.49370  0.60474  Biso   1.000  Hf
  Hf38     1.0000 0.24388  0.76953  0.86581  Biso   1.000  Hf
  Hf39     1.0000 0.78837  0.75242  0.62483  Biso   1.000  Hf
  Hf40     1.0000 0.71879  0.51526  0.86126  Biso   1.000  Hf
  Hf41     1.0000 0.99557  0.64308  0.49016  Biso   1.000  Hf
  Hf42     1.0000 0.02855  0.61953  0.74341  Biso   1.000  Hf
  Hf43     1.0000 0.96672  0.86629  0.76117  Biso   1.000  Hf
  Hf44     1.0000 0.05554  0.89236  0.51210  Biso   1.000  Hf
  Hf45     1.0000 0.55006  0.68049  0.77957  Biso   1.000  Hf
  Hf46     1.0000 0.49040  0.61529  0.52203  Biso   1.000  Hf
  Hf47     1.0000 0.56534  0.85923  0.50779  Biso   1.000  Hf
  Hf48     1.0000 0.44792  0.92997  0.76731  Biso   1.000  Hf
  Pt1      1.0000 0.22797  0.18746  0.09794  Biso   1.000  Pt
