data_image0
_cell_length_a       5.03608
_cell_length_b       10.2788
_cell_length_c       10.0217
_cell_angle_alpha    89.998
_cell_angle_beta     91.8143
_cell_angle_gamma    90.0057

_symmetry_space_group_name_H-M    "P 1"
_symmetry_int_tables_number       1

loop_
  _symmetry_equiv_pos_as_xyz
  'x, y, z'

loop_
  _atom_site_label
  _atom_site_occupancy
  _atom_site_fract_x
  _atom_site_fract_y
  _atom_site_fract_z
  _atom_site_thermal_displace_type
  _atom_site_B_iso_or_equiv
  _atom_site_type_symbol
  Pt1      1.0000 0.24978  0.03013  0.12505  Biso   1.000  Pt
  Hf1      1.0000 0.27983  0.26584  0.38980  Biso   1.000  Hf
  Hf2      1.0000 0.74985  0.23721  0.12505  Biso   1.000  Hf
  Hf3      1.0000 0.70342  0.98473  0.36311  Biso   1.000  Hf
  Hf4      1.0000 0.03682  0.14540  0.00104  Biso   1.000  Hf
  Hf5      1.0000 0.93710  0.07063  0.23419  Biso   1.000  Hf
  Hf6      1.0000 0.04807  0.32559  0.23294  Biso   1.000  Hf
  Hf7      1.0000 0.96179  0.39120  0.99213  Biso   1.000  Hf
  Hf8      1.0000 0.46284  0.14539  0.24905  Biso   1.000  Hf
  Hf9      1.0000 0.56250  0.07063  0.01593  Biso   1.000  Hf
  Hf10     1.0000 0.45189  0.32562  0.01703  Biso   1.000  Hf
  Hf11     1.0000 0.53820  0.39119  0.25785  Biso   1.000  Hf
  Hf12     1.0000 0.24976  0.01009  0.62503  Biso   1.000  Hf
  Hf13     1.0000 0.21992  0.26581  0.86027  Biso   1.000  Hf
  Hf14     1.0000 0.74977  0.23488  0.62508  Biso   1.000  Hf
  Hf15     1.0000 0.79605  0.98473  0.88696  Biso   1.000  Hf
  Hf16     1.0000 0.03319  0.16417  0.50645  Biso   1.000  Hf
  Hf17     1.0000 0.98347  0.11106  0.75339  Biso   1.000  Hf
  Hf18     1.0000 0.96083  0.36941  0.73551  Biso   1.000  Hf
  Hf19     1.0000 0.05258  0.41644  0.47726  Biso   1.000  Hf
  Hf20     1.0000 0.46652  0.16402  0.74371  Biso   1.000  Hf
  Hf21     1.0000 0.51614  0.11106  0.49672  Biso   1.000  Hf
  Hf22     1.0000 0.53922  0.36941  0.51444  Biso   1.000  Hf
  Hf23     1.0000 0.44750  0.41628  0.77263  Biso   1.000  Hf
  Hf24     1.0000 0.24997  0.47688  0.12502  Biso   1.000  Hf
  Hf25     1.0000 0.24004  0.74394  0.36438  Biso   1.000  Hf
  Hf26     1.0000 0.74999  0.72817  0.12500  Biso   1.000  Hf
  Hf27     1.0000 0.74468  0.51209  0.38552  Biso   1.000  Hf
  Hf28     1.0000 0.01168  0.63811  0.00165  Biso   1.000  Hf
  Hf29     1.0000 0.99768  0.58470  0.24676  Biso   1.000  Hf
  Hf30     1.0000 0.90984  0.82482  0.28137  Biso   1.000  Hf
  Hf31     1.0000 0.07165  0.89250  0.01348  Biso   1.000  Hf
  Hf32     1.0000 0.48824  0.63808  0.24837  Biso   1.000  Hf
  Hf33     1.0000 0.50228  0.58468  0.00327  Biso   1.000  Hf
  Hf34     1.0000 0.58968  0.82485  0.96880  Biso   1.000  Hf
  Hf35     1.0000 0.42778  0.89250  0.23664  Biso   1.000  Hf
  Hf36     1.0000 0.24983  0.51863  0.62505  Biso   1.000  Hf
  Hf37     1.0000 0.25969  0.74403  0.88557  Biso   1.000  Hf
  Hf38     1.0000 0.74972  0.77182  0.62500  Biso   1.000  Hf
  Hf39     1.0000 0.75508  0.51204  0.86454  Biso   1.000  Hf
  Hf40     1.0000 0.99441  0.66052  0.50226  Biso   1.000  Hf
  Hf41     1.0000 0.00271  0.61663  0.74981  Biso   1.000  Hf
  Hf42     1.0000 0.04275  0.85954  0.75632  Biso   1.000  Hf
  Hf43     1.0000 0.94837  0.91976  0.51734  Biso   1.000  Hf
  Hf44     1.0000 0.50524  0.66044  0.74781  Biso   1.000  Hf
  Hf45     1.0000 0.49698  0.61666  0.50024  Biso   1.000  Hf
  Hf46     1.0000 0.45655  0.85955  0.49379  Biso   1.000  Hf
  Hf47     1.0000 0.55083  0.91959  0.73287  Biso   1.000  Hf
