data_image0
_cell_length_a       10.0217
_cell_length_b       10.2787
_cell_length_c       5.03608
_cell_angle_alpha    89.9999
_cell_angle_beta     91.8141
_cell_angle_gamma    89.9996

_symmetry_space_group_name_H-M    "P 1"
_symmetry_int_tables_number       1

loop_
  _symmetry_equiv_pos_as_xyz
  'x, y, z'

loop_
  _atom_site_label
  _atom_site_occupancy
  _atom_site_fract_x
  _atom_site_fract_y
  _atom_site_fract_z
  _atom_site_thermal_displace_type
  _atom_site_B_iso_or_equiv
  _atom_site_type_symbol
  Pt1      1.0000 0.12488  0.03015  0.24985  Biso   1.000  Pt
  Hf1      1.0000 0.12487  0.23724  0.74983  Biso   1.000  Hf
  Hf2      1.0000 0.38965  0.26585  0.27980  Biso   1.000  Hf
  Hf3      1.0000 0.36298  0.98477  0.70359  Biso   1.000  Hf
  Hf4      1.0000 0.00087  0.14541  0.03682  Biso   1.000  Hf
  Hf5      1.0000 0.01573  0.07067  0.56251  Biso   1.000  Hf
  Hf6      1.0000 0.01696  0.32564  0.45169  Biso   1.000  Hf
  Hf7      1.0000 0.99206  0.39121  0.96156  Biso   1.000  Hf
  Hf8      1.0000 0.24888  0.14544  0.46284  Biso   1.000  Hf
  Hf9      1.0000 0.23398  0.07063  0.93711  Biso   1.000  Hf
  Hf10     1.0000 0.23287  0.32564  0.04786  Biso   1.000  Hf
  Hf11     1.0000 0.25778  0.39123  0.53798  Biso   1.000  Hf
  Hf12     1.0000 0.12490  0.47692  0.24978  Biso   1.000  Hf
  Hf13     1.0000 0.12491  0.72822  0.74982  Biso   1.000  Hf
  Hf14     1.0000 0.36432  0.74402  0.24003  Biso   1.000  Hf
  Hf15     1.0000 0.38540  0.51208  0.74463  Biso   1.000  Hf
  Hf16     1.0000 0.00156  0.63810  0.01153  Biso   1.000  Hf
  Hf17     1.0000 0.00316  0.58473  0.50210  Biso   1.000  Hf
  Hf18     1.0000 0.96860  0.82486  0.58975  Biso   1.000  Hf
  Hf19     1.0000 0.01334  0.89250  0.07175  Biso   1.000  Hf
  Hf20     1.0000 0.24826  0.63814  0.48809  Biso   1.000  Hf
  Hf21     1.0000 0.24666  0.58471  0.99751  Biso   1.000  Hf
  Hf22     1.0000 0.28119  0.82486  0.90996  Biso   1.000  Hf
  Hf23     1.0000 0.23647  0.89254  0.42797  Biso   1.000  Hf
  Hf24     1.0000 0.62489  0.01011  0.24988  Biso   1.000  Hf
  Hf25     1.0000 0.62485  0.23490  0.74990  Biso   1.000  Hf
  Hf26     1.0000 0.86012  0.26585  0.21987  Biso   1.000  Hf
  Hf27     1.0000 0.88683  0.98475  0.79621  Biso   1.000  Hf
  Hf28     1.0000 0.50619  0.16406  0.03312  Biso   1.000  Hf
  Hf29     1.0000 0.49654  0.11109  0.51616  Biso   1.000  Hf
  Hf30     1.0000 0.51439  0.36944  0.53897  Biso   1.000  Hf
  Hf31     1.0000 0.47726  0.41634  0.05230  Biso   1.000  Hf
  Hf32     1.0000 0.74346  0.16418  0.46646  Biso   1.000  Hf
  Hf33     1.0000 0.75321  0.11109  0.98350  Biso   1.000  Hf
  Hf34     1.0000 0.73546  0.36942  0.96053  Biso   1.000  Hf
  Hf35     1.0000 0.77263  0.41643  0.44716  Biso   1.000  Hf
  Hf36     1.0000 0.62489  0.51867  0.24982  Biso   1.000  Hf
  Hf37     1.0000 0.62491  0.77184  0.74988  Biso   1.000  Hf
  Hf38     1.0000 0.88551  0.74398  0.25964  Biso   1.000  Hf
  Hf39     1.0000 0.86441  0.51208  0.75500  Biso   1.000  Hf
  Hf40     1.0000 0.50213  0.66049  0.99447  Biso   1.000  Hf
  Hf41     1.0000 0.50012  0.61667  0.49700  Biso   1.000  Hf
  Hf42     1.0000 0.49363  0.85957  0.45680  Biso   1.000  Hf
  Hf43     1.0000 0.51713  0.91967  0.94868  Biso   1.000  Hf
  Hf44     1.0000 0.74767  0.66053  0.50521  Biso   1.000  Hf
  Hf45     1.0000 0.74969  0.61667  0.00265  Biso   1.000  Hf
  Hf46     1.0000 0.75618  0.85956  0.04299  Biso   1.000  Hf
  Hf47     1.0000 0.73264  0.91974  0.55116  Biso   1.000  Hf
