data_image0
_cell_length_a       10.0704
_cell_length_b       10.4611
_cell_length_c       5.06201
_cell_angle_alpha    90.0855
_cell_angle_beta     89.6498
_cell_angle_gamma    89.9626

_symmetry_space_group_name_H-M    "P 1"
_symmetry_int_tables_number       1

loop_
  _symmetry_equiv_pos_as_xyz
  'x, y, z'

loop_
  _atom_site_label
  _atom_site_occupancy
  _atom_site_fract_x
  _atom_site_fract_y
  _atom_site_fract_z
  _atom_site_thermal_displace_type
  _atom_site_B_iso_or_equiv
  _atom_site_type_symbol
  Rb1      1.0000 0.08783  0.99299  0.28194  Biso   1.000  Rb
  Hf1      1.0000 0.14176  0.51766  0.26256  Biso   1.000  Hf
  Hf2      1.0000 0.62966  0.02191  0.23625  Biso   1.000  Hf
  Hf3      1.0000 0.62987  0.51367  0.24964  Biso   1.000  Hf
  Hf4      1.0000 0.13585  0.23506  0.75062  Biso   1.000  Hf
  Hf5      1.0000 0.15082  0.73735  0.76363  Biso   1.000  Hf
  Hf6      1.0000 0.63233  0.23490  0.74187  Biso   1.000  Hf
  Hf7      1.0000 0.62910  0.72830  0.74621  Biso   1.000  Hf
  Hf8      1.0000 0.36366  0.26423  0.25408  Biso   1.000  Hf
  Hf9      1.0000 0.37106  0.76821  0.25090  Biso   1.000  Hf
  Hf10     1.0000 0.86578  0.27430  0.24470  Biso   1.000  Hf
  Hf11     1.0000 0.89153  0.72635  0.17323  Biso   1.000  Hf
  Hf12     1.0000 0.36722  0.47968  0.75597  Biso   1.000  Hf
  Hf13     1.0000 0.36587  0.98280  0.75512  Biso   1.000  Hf
  Hf14     1.0000 0.86449  0.48233  0.74358  Biso   1.000  Hf
  Hf15     1.0000 0.85737  0.99199  0.77507  Biso   1.000  Hf
  Hf16     1.0000 0.03425  0.22090  0.39619  Biso   1.000  Hf
  Hf17     1.0000 0.04856  0.69275  0.40629  Biso   1.000  Hf
  Hf18     1.0000 0.54162  0.18699  0.37815  Biso   1.000  Hf
  Hf19     1.0000 0.53596  0.67916  0.39744  Biso   1.000  Hf
  Hf20     1.0000 0.02695  0.07664  0.80395  Biso   1.000  Hf
  Hf21     1.0000 0.01611  0.58831  0.93637  Biso   1.000  Hf
  Hf22     1.0000 0.54304  0.06628  0.87650  Biso   1.000  Hf
  Hf23     1.0000 0.53038  0.56858  0.89801  Biso   1.000  Hf
  Hf24     1.0000 0.46679  0.43009  0.39777  Biso   1.000  Hf
  Hf25     1.0000 0.47457  0.93310  0.39759  Biso   1.000  Hf
  Hf26     1.0000 0.96368  0.44843  0.39074  Biso   1.000  Hf
  Hf27     1.0000 0.85565  0.86880  0.45402  Biso   1.000  Hf
  Hf28     1.0000 0.46831  0.31686  0.89198  Biso   1.000  Hf
  Hf29     1.0000 0.47958  0.82207  0.90582  Biso   1.000  Hf
  Hf30     1.0000 0.96877  0.32954  0.89588  Biso   1.000  Hf
  Hf31     1.0000 0.98448  0.83420  0.89890  Biso   1.000  Hf
  Hf32     1.0000 0.28727  0.13106  0.52103  Biso   1.000  Hf
  Hf33     1.0000 0.27376  0.61250  0.50969  Biso   1.000  Hf
  Hf34     1.0000 0.77643  0.11583  0.48817  Biso   1.000  Hf
  Hf35     1.0000 0.77042  0.61643  0.47763  Biso   1.000  Hf
  Hf36     1.0000 0.27875  0.13511  0.99384  Biso   1.000  Hf
  Hf37     1.0000 0.27165  0.62670  0.00902  Biso   1.000  Hf
  Hf38     1.0000 0.77087  0.13854  0.99695  Biso   1.000  Hf
  Hf39     1.0000 0.76095  0.62165  0.97186  Biso   1.000  Hf
  Hf40     1.0000 0.23114  0.38420  0.00528  Biso   1.000  Hf
  Hf41     1.0000 0.24749  0.87144  0.99889  Biso   1.000  Hf
  Hf42     1.0000 0.72787  0.38342  0.99198  Biso   1.000  Hf
  Hf43     1.0000 0.74028  0.87168  0.00536  Biso   1.000  Hf
  Hf44     1.0000 0.23062  0.37215  0.50374  Biso   1.000  Hf
  Hf45     1.0000 0.25529  0.85492  0.52335  Biso   1.000  Hf
  Hf46     1.0000 0.73214  0.36873  0.49613  Biso   1.000  Hf
  Hf47     1.0000 0.71333  0.87977  0.49479  Biso   1.000  Hf
