data_image0
_cell_length_a       5.01537
_cell_length_b       10.4282
_cell_length_c       10.1417
_cell_angle_alpha    89.5574
_cell_angle_beta     89.6457
_cell_angle_gamma    89.6978

_symmetry_space_group_name_H-M    "P 1"
_symmetry_int_tables_number       1

loop_
  _symmetry_equiv_pos_as_xyz
  'x, y, z'

loop_
  _atom_site_label
  _atom_site_occupancy
  _atom_site_fract_x
  _atom_site_fract_y
  _atom_site_fract_z
  _atom_site_thermal_displace_type
  _atom_site_B_iso_or_equiv
  _atom_site_type_symbol
  Rb1      1.0000 0.19589  0.99138  0.12659  Biso   1.000  Rb
  Hf1      1.0000 0.25685  0.02240  0.63501  Biso   1.000  Hf
  Hf2      1.0000 0.27247  0.51228  0.13230  Biso   1.000  Hf
  Hf3      1.0000 0.27098  0.51825  0.62506  Biso   1.000  Hf
  Hf4      1.0000 0.26949  0.23572  0.37640  Biso   1.000  Hf
  Hf5      1.0000 0.28222  0.23051  0.87644  Biso   1.000  Hf
  Hf6      1.0000 0.26457  0.73176  0.37942  Biso   1.000  Hf
  Hf7      1.0000 0.28138  0.73284  0.86904  Biso   1.000  Hf
  Hf8      1.0000 0.72091  0.26267  0.13036  Biso   1.000  Hf
  Hf9      1.0000 0.73442  0.27173  0.62503  Biso   1.000  Hf
  Hf10     1.0000 0.77471  0.72285  0.08084  Biso   1.000  Hf
  Hf11     1.0000 0.73305  0.76846  0.62212  Biso   1.000  Hf
  Hf12     1.0000 0.73244  0.48647  0.37594  Biso   1.000  Hf
  Hf13     1.0000 0.73085  0.47272  0.87518  Biso   1.000  Hf
  Hf14     1.0000 0.72015  0.99616  0.39855  Biso   1.000  Hf
  Hf15     1.0000 0.72265  0.98463  0.87156  Biso   1.000  Hf
  Hf16     1.0000 0.07227  0.21280  0.20304  Biso   1.000  Hf
  Hf17     1.0000 0.08562  0.19750  0.68092  Biso   1.000  Hf
  Hf18     1.0000 0.10087  0.69300  0.19783  Biso   1.000  Hf
  Hf19     1.0000 0.07337  0.68547  0.69293  Biso   1.000  Hf
  Hf20     1.0000 0.07789  0.06866  0.44291  Biso   1.000  Hf
  Hf21     1.0000 0.08518  0.06538  0.88431  Biso   1.000  Hf
  Hf22     1.0000 0.07575  0.56933  0.44465  Biso   1.000  Hf
  Hf23     1.0000 0.01641  0.58741  0.96705  Biso   1.000  Hf
  Hf24     1.0000 0.91900  0.44340  0.19435  Biso   1.000  Hf
  Hf25     1.0000 0.93398  0.43813  0.69814  Biso   1.000  Hf
  Hf26     1.0000 0.75774  0.88570  0.20940  Biso   1.000  Hf
  Hf27     1.0000 0.90603  0.93813  0.67897  Biso   1.000  Hf
  Hf28     1.0000 0.93171  0.32375  0.44780  Biso   1.000  Hf
  Hf29     1.0000 0.94103  0.31984  0.94529  Biso   1.000  Hf
  Hf30     1.0000 0.93300  0.81992  0.44649  Biso   1.000  Hf
  Hf31     1.0000 0.97057  0.83064  0.94000  Biso   1.000  Hf
  Hf32     1.0000 0.57854  0.13053  0.26695  Biso   1.000  Hf
  Hf33     1.0000 0.55095  0.12392  0.74819  Biso   1.000  Hf
  Hf34     1.0000 0.55193  0.61837  0.24302  Biso   1.000  Hf
  Hf35     1.0000 0.54590  0.61812  0.74563  Biso   1.000  Hf
  Hf36     1.0000 0.53391  0.13573  0.51040  Biso   1.000  Hf
  Hf37     1.0000 0.57205  0.13134  0.99453  Biso   1.000  Hf
  Hf38     1.0000 0.54386  0.63429  0.49659  Biso   1.000  Hf
  Hf39     1.0000 0.50820  0.60904  0.98902  Biso   1.000  Hf
  Hf40     1.0000 0.46330  0.38653  0.50148  Biso   1.000  Hf
  Hf41     1.0000 0.45507  0.37675  0.00383  Biso   1.000  Hf
  Hf42     1.0000 0.44644  0.88479  0.50716  Biso   1.000  Hf
  Hf43     1.0000 0.50550  0.84914  0.98938  Biso   1.000  Hf
  Hf44     1.0000 0.45923  0.37456  0.25465  Biso   1.000  Hf
  Hf45     1.0000 0.46082  0.37090  0.75155  Biso   1.000  Hf
  Hf46     1.0000 0.51257  0.87012  0.27217  Biso   1.000  Hf
  Hf47     1.0000 0.45438  0.87199  0.74862  Biso   1.000  Hf
