data_image0
_cell_length_a       10.1491
_cell_length_b       5.16977
_cell_length_c       10.1491
_cell_angle_alpha    90.0001
_cell_angle_beta     90
_cell_angle_gamma    90.0004

_symmetry_space_group_name_H-M    "P 1"
_symmetry_int_tables_number       1

loop_
  _symmetry_equiv_pos_as_xyz
  'x, y, z'

loop_
  _atom_site_label
  _atom_site_occupancy
  _atom_site_fract_x
  _atom_site_fract_y
  _atom_site_fract_z
  _atom_site_thermal_displace_type
  _atom_site_B_iso_or_equiv
  _atom_site_type_symbol
  Hf1      1.0000 0.12491  0.00011  0.12491  Biso   1.000  Hf
  Hf2      1.0000 0.12491  0.50011  0.39804  Biso   1.000  Hf
  Hf3      1.0000 0.39804  0.50010  0.12491  Biso   1.000  Hf
  Hf4      1.0000 0.37441  0.01257  0.37441  Biso   1.000  Hf
  Hf5      1.0000 0.97329  0.32150  0.97329  Biso   1.000  Hf
  Hf6      1.0000 0.00027  0.17693  0.24955  Biso   1.000  Hf
  Hf7      1.0000 0.97329  0.67871  0.27653  Biso   1.000  Hf
  Hf8      1.0000 0.00027  0.82329  0.00027  Biso   1.000  Hf
  Hf9      1.0000 0.27653  0.32150  0.27653  Biso   1.000  Hf
  Hf10     1.0000 0.24955  0.17693  0.00028  Biso   1.000  Hf
  Hf11     1.0000 0.27653  0.67871  0.97329  Biso   1.000  Hf
  Hf12     1.0000 0.24955  0.82329  0.24955  Biso   1.000  Hf
  Hf13     1.0000 0.12491  0.00011  0.62491  Biso   1.000  Hf
  Hf14     1.0000 0.12491  0.50011  0.85177  Biso   1.000  Hf
  Hf15     1.0000 0.37854  0.50011  0.62491  Biso   1.000  Hf
  Hf16     1.0000 0.37441  0.98764  0.87541  Biso   1.000  Hf
  Hf17     1.0000 0.99164  0.28700  0.49864  Biso   1.000  Hf
  Hf18     1.0000 0.00532  0.21009  0.74310  Biso   1.000  Hf
  Hf19     1.0000 0.99164  0.71321  0.75118  Biso   1.000  Hf
  Hf20     1.0000 0.00531  0.79012  0.50672  Biso   1.000  Hf
  Hf21     1.0000 0.25818  0.28700  0.75118  Biso   1.000  Hf
  Hf22     1.0000 0.24450  0.21009  0.50672  Biso   1.000  Hf
  Hf23     1.0000 0.25818  0.71321  0.49863  Biso   1.000  Hf
  Hf24     1.0000 0.24450  0.79012  0.74310  Biso   1.000  Hf
  Hf25     1.0000 0.62491  0.00011  0.12491  Biso   1.000  Hf
  Hf26     1.0000 0.62491  0.50011  0.37854  Biso   1.000  Hf
  Hf27     1.0000 0.85178  0.50011  0.12491  Biso   1.000  Hf
  Hf28     1.0000 0.87541  0.98764  0.37441  Biso   1.000  Hf
  Hf29     1.0000 0.49864  0.28701  0.99164  Biso   1.000  Hf
  Hf30     1.0000 0.50672  0.21009  0.24450  Biso   1.000  Hf
  Hf31     1.0000 0.49863  0.71321  0.25818  Biso   1.000  Hf
  Hf32     1.0000 0.50672  0.79012  0.00531  Biso   1.000  Hf
  Hf33     1.0000 0.75118  0.28700  0.25818  Biso   1.000  Hf
  Hf34     1.0000 0.74310  0.21009  0.00532  Biso   1.000  Hf
  Hf35     1.0000 0.75118  0.71321  0.99164  Biso   1.000  Hf
  Hf36     1.0000 0.74310  0.79013  0.24450  Biso   1.000  Hf
  Hf37     1.0000 0.62491  0.00011  0.62491  Biso   1.000  Hf
  Hf38     1.0000 0.62491  0.50011  0.87127  Biso   1.000  Hf
  Hf39     1.0000 0.87127  0.50011  0.62491  Biso   1.000  Hf
  Hf40     1.0000 0.87541  0.01258  0.87541  Biso   1.000  Hf
  Hf41     1.0000 0.49392  0.30049  0.49392  Biso   1.000  Hf
  Hf42     1.0000 0.50449  0.20280  0.74533  Biso   1.000  Hf
  Hf43     1.0000 0.49392  0.69973  0.75590  Biso   1.000  Hf
  Hf44     1.0000 0.50449  0.79741  0.50449  Biso   1.000  Hf
  Hf45     1.0000 0.75590  0.30048  0.75590  Biso   1.000  Hf
  Hf46     1.0000 0.74532  0.20280  0.50449  Biso   1.000  Hf
  Hf47     1.0000 0.75589  0.69973  0.49392  Biso   1.000  Hf
  Hf48     1.0000 0.74533  0.79741  0.74533  Biso   1.000  Hf
  Rb1      1.0000 0.12491  0.50011  0.12491  Biso   1.000  Rb
