data_image0
_cell_length_a       4.99675
_cell_length_b       10.1299
_cell_length_c       9.99065
_cell_angle_alpha    90
_cell_angle_beta     90.0001
_cell_angle_gamma    90.0002

_symmetry_space_group_name_H-M    "P 1"
_symmetry_int_tables_number       1

loop_
  _symmetry_equiv_pos_as_xyz
  'x, y, z'

loop_
  _atom_site_label
  _atom_site_occupancy
  _atom_site_fract_x
  _atom_site_fract_y
  _atom_site_fract_z
  _atom_site_thermal_displace_type
  _atom_site_B_iso_or_equiv
  _atom_site_type_symbol
  Re1      1.0000 0.24981  0.00005  0.12491  Biso   1.000  Re
  Hf1      1.0000 0.25018  0.24891  0.37335  Biso   1.000  Hf
  Hf2      1.0000 0.74982  0.24811  0.12491  Biso   1.000  Hf
  Hf3      1.0000 0.74982  0.00005  0.37404  Biso   1.000  Hf
  Hf4      1.0000 0.99267  0.14065  0.99766  Biso   1.000  Hf
  Hf5      1.0000 0.01066  0.10426  0.24493  Biso   1.000  Hf
  Hf6      1.0000 0.99102  0.35408  0.25359  Biso   1.000  Hf
  Hf7      1.0000 0.00517  0.39417  0.00189  Biso   1.000  Hf
  Hf8      1.0000 0.50697  0.14065  0.25215  Biso   1.000  Hf
  Hf9      1.0000 0.48897  0.10426  0.00489  Biso   1.000  Hf
  Hf10     1.0000 0.50861  0.35408  0.99622  Biso   1.000  Hf
  Hf11     1.0000 0.49447  0.39417  0.24793  Biso   1.000  Hf
  Hf12     1.0000 0.24981  0.00006  0.62491  Biso   1.000  Hf
  Hf13     1.0000 0.24945  0.24891  0.87646  Biso   1.000  Hf
  Hf14     1.0000 0.74981  0.25061  0.62491  Biso   1.000  Hf
  Hf15     1.0000 0.74982  0.00005  0.87578  Biso   1.000  Hf
  Hf16     1.0000 0.98772  0.14610  0.49333  Biso   1.000  Hf
  Hf17     1.0000 0.00644  0.10481  0.74715  Biso   1.000  Hf
  Hf18     1.0000 0.99356  0.35393  0.75368  Biso   1.000  Hf
  Hf19     1.0000 0.00329  0.39574  0.50212  Biso   1.000  Hf
  Hf20     1.0000 0.51191  0.14610  0.75649  Biso   1.000  Hf
  Hf21     1.0000 0.49319  0.10480  0.50267  Biso   1.000  Hf
  Hf22     1.0000 0.50607  0.35393  0.49614  Biso   1.000  Hf
  Hf23     1.0000 0.49635  0.39574  0.74770  Biso   1.000  Hf
  Hf24     1.0000 0.24982  0.50006  0.12491  Biso   1.000  Hf
  Hf25     1.0000 0.24946  0.75120  0.37336  Biso   1.000  Hf
  Hf26     1.0000 0.74981  0.75200  0.12491  Biso   1.000  Hf
  Hf27     1.0000 0.74982  0.50005  0.37521  Biso   1.000  Hf
  Hf28     1.0000 0.99102  0.64604  0.99622  Biso   1.000  Hf
  Hf29     1.0000 0.00517  0.60594  0.24794  Biso   1.000  Hf
  Hf30     1.0000 0.99267  0.85946  0.25216  Biso   1.000  Hf
  Hf31     1.0000 0.01066  0.89585  0.00489  Biso   1.000  Hf
  Hf32     1.0000 0.50861  0.64603  0.25360  Biso   1.000  Hf
  Hf33     1.0000 0.49447  0.60594  0.00188  Biso   1.000  Hf
  Hf34     1.0000 0.50697  0.85946  0.99766  Biso   1.000  Hf
  Hf35     1.0000 0.48897  0.89585  0.24493  Biso   1.000  Hf
  Hf36     1.0000 0.24982  0.50005  0.62491  Biso   1.000  Hf
  Hf37     1.0000 0.25018  0.75120  0.87646  Biso   1.000  Hf
  Hf38     1.0000 0.74981  0.74949  0.62491  Biso   1.000  Hf
  Hf39     1.0000 0.74982  0.50005  0.87461  Biso   1.000  Hf
  Hf40     1.0000 0.99356  0.64617  0.49614  Biso   1.000  Hf
  Hf41     1.0000 0.00329  0.60436  0.74770  Biso   1.000  Hf
  Hf42     1.0000 0.98772  0.85401  0.75649  Biso   1.000  Hf
  Hf43     1.0000 0.00644  0.89530  0.50267  Biso   1.000  Hf
  Hf44     1.0000 0.50607  0.64617  0.75368  Biso   1.000  Hf
  Hf45     1.0000 0.49634  0.60436  0.50211  Biso   1.000  Hf
  Hf46     1.0000 0.51192  0.85401  0.49333  Biso   1.000  Hf
  Hf47     1.0000 0.49319  0.89530  0.74714  Biso   1.000  Hf
