data_image0
_cell_length_a       10.0844
_cell_length_b       5.25321
_cell_length_c       10.1007
_cell_angle_alpha    91.1035
_cell_angle_beta     88.5259
_cell_angle_gamma    89.772

_symmetry_space_group_name_H-M    "P 1"
_symmetry_int_tables_number       1

loop_
  _symmetry_equiv_pos_as_xyz
  'x, y, z'

loop_
  _atom_site_label
  _atom_site_occupancy
  _atom_site_fract_x
  _atom_site_fract_y
  _atom_site_fract_z
  _atom_site_thermal_displace_type
  _atom_site_B_iso_or_equiv
  _atom_site_type_symbol
  Hf1      1.0000 0.11927  0.10164  0.10715  Biso   1.000  Hf
  Hf2      1.0000 0.14002  0.43124  0.38600  Biso   1.000  Hf
  Hf3      1.0000 0.40773  0.54110  0.10311  Biso   1.000  Hf
  Hf4      1.0000 0.36769  0.93913  0.37706  Biso   1.000  Hf
  Hf5      1.0000 0.00699  0.36501  0.22599  Biso   1.000  Hf
  Hf6      1.0000 0.03404  0.11632  0.45689  Biso   1.000  Hf
  Hf7      1.0000 0.47845  0.86465  0.20063  Biso   1.000  Hf
  Hf8      1.0000 0.47525  0.62887  0.46208  Biso   1.000  Hf
  Hf9      1.0000 0.23633  0.12903  0.26762  Biso   1.000  Hf
  Hf10     1.0000 0.27671  0.24653  0.50838  Biso   1.000  Hf
  Hf11     1.0000 0.23006  0.74735  0.50628  Biso   1.000  Hf
  Hf12     1.0000 0.28175  0.61246  0.26620  Biso   1.000  Hf
  Hf13     1.0000 0.13432  0.02130  0.62961  Biso   1.000  Hf
  Hf14     1.0000 0.11509  0.46748  0.86252  Biso   1.000  Hf
  Hf15     1.0000 0.36449  0.52816  0.63140  Biso   1.000  Hf
  Hf16     1.0000 0.37333  0.99203  0.87168  Biso   1.000  Hf
  Hf17     1.0000 0.03220  0.36232  0.68225  Biso   1.000  Hf
  Hf18     1.0000 0.03026  0.11850  0.92104  Biso   1.000  Hf
  Hf19     1.0000 0.46147  0.86872  0.69421  Biso   1.000  Hf
  Hf20     1.0000 0.48099  0.67918  0.92925  Biso   1.000  Hf
  Hf21     1.0000 0.26300  0.23452  0.75576  Biso   1.000  Hf
  Hf22     1.0000 0.25485  0.35664  0.00673  Biso   1.000  Hf
  Hf23     1.0000 0.26379  0.85023  0.02502  Biso   1.000  Hf
  Hf24     1.0000 0.22946  0.73681  0.76218  Biso   1.000  Hf
  Hf25     1.0000 0.63971  0.03681  0.13064  Biso   1.000  Hf
  Hf26     1.0000 0.63821  0.46485  0.37787  Biso   1.000  Hf
  Hf27     1.0000 0.85883  0.52794  0.11368  Biso   1.000  Hf
  Hf28     1.0000 0.87333  0.96050  0.37396  Biso   1.000  Hf
  Hf29     1.0000 0.54225  0.36544  0.20772  Biso   1.000  Hf
  Hf30     1.0000 0.53585  0.12751  0.44345  Biso   1.000  Hf
  Hf31     1.0000 0.97533  0.85328  0.18936  Biso   1.000  Hf
  Hf32     1.0000 0.96953  0.63102  0.44489  Biso   1.000  Hf
  Hf33     1.0000 0.77236  0.22000  0.24726  Biso   1.000  Hf
  Hf34     1.0000 0.76857  0.26483  0.49556  Biso   1.000  Hf
  Hf35     1.0000 0.73688  0.76816  0.49514  Biso   1.000  Hf
  Hf36     1.0000 0.73636  0.72912  0.24868  Biso   1.000  Hf
  Hf37     1.0000 0.62827  0.02781  0.61560  Biso   1.000  Hf
  Hf38     1.0000 0.64149  0.46764  0.86694  Biso   1.000  Hf
  Hf39     1.0000 0.86814  0.53190  0.61569  Biso   1.000  Hf
  Hf40     1.0000 0.85665  0.96162  0.86347  Biso   1.000  Hf
  Hf41     1.0000 0.52652  0.35229  0.70535  Biso   1.000  Hf
  Hf42     1.0000 0.51356  0.19705  0.97141  Biso   1.000  Hf
  Hf43     1.0000 0.96270  0.85904  0.69015  Biso   1.000  Hf
  Hf44     1.0000 0.93427  0.61959  0.91887  Biso   1.000  Hf
  Hf45     1.0000 0.76321  0.22693  0.74122  Biso   1.000  Hf
  Hf46     1.0000 0.76385  0.25696  0.99357  Biso   1.000  Hf
  Hf47     1.0000 0.72083  0.76866  0.99739  Biso   1.000  Hf
  Hf48     1.0000 0.72351  0.73312  0.74002  Biso   1.000  Hf
  Re1      1.0000 0.12752  0.61104  0.11976  Biso   1.000  Re
