data_image0
_cell_length_a       10.0727
_cell_length_b       5.2232
_cell_length_c       10.0864
_cell_angle_alpha    90.002
_cell_angle_beta     88.6647
_cell_angle_gamma    90.0039

_symmetry_space_group_name_H-M    "P 1"
_symmetry_int_tables_number       1

loop_
  _symmetry_equiv_pos_as_xyz
  'x, y, z'

loop_
  _atom_site_label
  _atom_site_occupancy
  _atom_site_fract_x
  _atom_site_fract_y
  _atom_site_fract_z
  _atom_site_thermal_displace_type
  _atom_site_B_iso_or_equiv
  _atom_site_type_symbol
  Hf1      1.0000 0.12498  0.84979  0.12498  Biso   1.000  Hf
  Hf2      1.0000 0.13602  0.50246  0.39124  Biso   1.000  Hf
  Hf3      1.0000 0.39789  0.51944  0.14721  Biso   1.000  Hf
  Hf4      1.0000 0.38067  0.02282  0.38406  Biso   1.000  Hf
  Hf5      1.0000 0.97990  0.30420  0.98064  Biso   1.000  Hf
  Hf6      1.0000 0.01858  0.09706  0.24424  Biso   1.000  Hf
  Hf7      1.0000 0.00106  0.59189  0.24261  Biso   1.000  Hf
  Hf8      1.0000 0.98482  0.79538  0.98485  Biso   1.000  Hf
  Hf9      1.0000 0.27005  0.30425  0.26931  Biso   1.000  Hf
  Hf10     1.0000 0.23138  0.09707  0.00571  Biso   1.000  Hf
  Hf11     1.0000 0.24889  0.59191  0.00733  Biso   1.000  Hf
  Hf12     1.0000 0.26514  0.79541  0.26511  Biso   1.000  Hf
  Hf13     1.0000 0.12499  0.99554  0.62500  Biso   1.000  Hf
  Hf14     1.0000 0.11392  0.50245  0.85870  Biso   1.000  Hf
  Hf15     1.0000 0.38123  0.52843  0.63280  Biso   1.000  Hf
  Hf16     1.0000 0.37611  0.01743  0.87198  Biso   1.000  Hf
  Hf17     1.0000 0.99110  0.30319  0.48953  Biso   1.000  Hf
  Hf18     1.0000 0.00178  0.22103  0.73870  Biso   1.000  Hf
  Hf19     1.0000 0.99751  0.71885  0.73835  Biso   1.000  Hf
  Hf20     1.0000 0.00675  0.80446  0.49090  Biso   1.000  Hf
  Hf21     1.0000 0.25881  0.30312  0.76039  Biso   1.000  Hf
  Hf22     1.0000 0.24814  0.22104  0.51122  Biso   1.000  Hf
  Hf23     1.0000 0.25241  0.71885  0.51162  Biso   1.000  Hf
  Hf24     1.0000 0.24318  0.80442  0.75907  Biso   1.000  Hf
  Hf25     1.0000 0.62500  0.99616  0.12499  Biso   1.000  Hf
  Hf26     1.0000 0.64192  0.50116  0.36171  Biso   1.000  Hf
  Hf27     1.0000 0.85207  0.51940  0.10273  Biso   1.000  Hf
  Hf28     1.0000 0.87386  0.01743  0.37799  Biso   1.000  Hf
  Hf29     1.0000 0.47805  0.28702  0.99871  Biso   1.000  Hf
  Hf30     1.0000 0.51304  0.22584  0.25382  Biso   1.000  Hf
  Hf31     1.0000 0.50886  0.74494  0.27458  Biso   1.000  Hf
  Hf32     1.0000 0.48663  0.80143  0.01553  Biso   1.000  Hf
  Hf33     1.0000 0.77188  0.28689  0.25119  Biso   1.000  Hf
  Hf34     1.0000 0.73690  0.22582  0.99609  Biso   1.000  Hf
  Hf35     1.0000 0.74111  0.74491  0.97539  Biso   1.000  Hf
  Hf36     1.0000 0.76334  0.80134  0.23444  Biso   1.000  Hf
  Hf37     1.0000 0.62498  0.04085  0.62498  Biso   1.000  Hf
  Hf38     1.0000 0.60805  0.50119  0.88819  Biso   1.000  Hf
  Hf39     1.0000 0.86870  0.52844  0.61713  Biso   1.000  Hf
  Hf40     1.0000 0.86929  0.02276  0.86589  Biso   1.000  Hf
  Hf41     1.0000 0.50151  0.34445  0.49737  Biso   1.000  Hf
  Hf42     1.0000 0.50220  0.23390  0.75145  Biso   1.000  Hf
  Hf43     1.0000 0.49641  0.72836  0.76690  Biso   1.000  Hf
  Hf44     1.0000 0.48915  0.84652  0.52657  Biso   1.000  Hf
  Hf45     1.0000 0.74841  0.34438  0.75254  Biso   1.000  Hf
  Hf46     1.0000 0.74772  0.23390  0.49846  Biso   1.000  Hf
  Hf47     1.0000 0.75351  0.72838  0.48306  Biso   1.000  Hf
  Hf48     1.0000 0.76075  0.84644  0.72341  Biso   1.000  Hf
  Re1      1.0000 0.12498  0.34282  0.12497  Biso   1.000  Re
