data_image0
_cell_length_a       9.99812
_cell_length_b       10.1685
_cell_length_c       9.9981
_cell_angle_alpha    90
_cell_angle_beta     90
_cell_angle_gamma    90

_symmetry_space_group_name_H-M    "P 1"
_symmetry_int_tables_number       1

loop_
  _symmetry_equiv_pos_as_xyz
  'x, y, z'

loop_
  _atom_site_label
  _atom_site_occupancy
  _atom_site_fract_x
  _atom_site_fract_y
  _atom_site_fract_z
  _atom_site_thermal_displace_type
  _atom_site_B_iso_or_equiv
  _atom_site_type_symbol
  Re1      1.0000 0.12491  0.00005  0.12491  Biso   1.000  Re
  Hf1      1.0000 0.12528  0.24920  0.37342  Biso   1.000  Hf
  Hf2      1.0000 0.37342  0.24920  0.12528  Biso   1.000  Hf
  Hf3      1.0000 0.37389  0.99916  0.37389  Biso   1.000  Hf
  Hf4      1.0000 0.99911  0.14100  0.99911  Biso   1.000  Hf
  Hf5      1.0000 0.00445  0.10402  0.24537  Biso   1.000  Hf
  Hf6      1.0000 0.99836  0.35404  0.25146  Biso   1.000  Hf
  Hf7      1.0000 0.00095  0.39489  0.00095  Biso   1.000  Hf
  Hf8      1.0000 0.25070  0.14100  0.25070  Biso   1.000  Hf
  Hf9      1.0000 0.24537  0.10402  0.00445  Biso   1.000  Hf
  Hf10     1.0000 0.25146  0.35404  0.99836  Biso   1.000  Hf
  Hf11     1.0000 0.24886  0.39489  0.24886  Biso   1.000  Hf
  Hf12     1.0000 0.12491  0.00005  0.62491  Biso   1.000  Hf
  Hf13     1.0000 0.12454  0.24920  0.87640  Biso   1.000  Hf
  Hf14     1.0000 0.37507  0.24996  0.62505  Biso   1.000  Hf
  Hf15     1.0000 0.37388  0.00095  0.87593  Biso   1.000  Hf
  Hf16     1.0000 0.99675  0.14737  0.49539  Biso   1.000  Hf
  Hf17     1.0000 0.00121  0.10299  0.74800  Biso   1.000  Hf
  Hf18     1.0000 0.99848  0.35232  0.75170  Biso   1.000  Hf
  Hf19     1.0000 0.00054  0.39731  0.50080  Biso   1.000  Hf
  Hf20     1.0000 0.25306  0.14737  0.75443  Biso   1.000  Hf
  Hf21     1.0000 0.24861  0.10298  0.50182  Biso   1.000  Hf
  Hf22     1.0000 0.25134  0.35232  0.49812  Biso   1.000  Hf
  Hf23     1.0000 0.24927  0.39730  0.74902  Biso   1.000  Hf
  Hf24     1.0000 0.12491  0.50005  0.12491  Biso   1.000  Hf
  Hf25     1.0000 0.12454  0.75091  0.37342  Biso   1.000  Hf
  Hf26     1.0000 0.37342  0.75091  0.12454  Biso   1.000  Hf
  Hf27     1.0000 0.37507  0.49967  0.37507  Biso   1.000  Hf
  Hf28     1.0000 0.99836  0.64607  0.99836  Biso   1.000  Hf
  Hf29     1.0000 0.00095  0.60521  0.24886  Biso   1.000  Hf
  Hf30     1.0000 0.99911  0.85911  0.25070  Biso   1.000  Hf
  Hf31     1.0000 0.00445  0.89608  0.00445  Biso   1.000  Hf
  Hf32     1.0000 0.25146  0.64607  0.25146  Biso   1.000  Hf
  Hf33     1.0000 0.24886  0.60521  0.00095  Biso   1.000  Hf
  Hf34     1.0000 0.25070  0.85911  0.99912  Biso   1.000  Hf
  Hf35     1.0000 0.24537  0.89608  0.24537  Biso   1.000  Hf
  Hf36     1.0000 0.12491  0.50005  0.62491  Biso   1.000  Hf
  Hf37     1.0000 0.12528  0.75091  0.87640  Biso   1.000  Hf
  Hf38     1.0000 0.37507  0.75015  0.62477  Biso   1.000  Hf
  Hf39     1.0000 0.37507  0.50043  0.87474  Biso   1.000  Hf
  Hf40     1.0000 0.99848  0.64779  0.49812  Biso   1.000  Hf
  Hf41     1.0000 0.00054  0.60280  0.74902  Biso   1.000  Hf
  Hf42     1.0000 0.99675  0.85274  0.75443  Biso   1.000  Hf
  Hf43     1.0000 0.00121  0.89712  0.50182  Biso   1.000  Hf
  Hf44     1.0000 0.25134  0.64779  0.75170  Biso   1.000  Hf
  Hf45     1.0000 0.24927  0.60280  0.50080  Biso   1.000  Hf
  Hf46     1.0000 0.25306  0.85274  0.49539  Biso   1.000  Hf
  Hf47     1.0000 0.24861  0.89712  0.74800  Biso   1.000  Hf
  Hf48     1.0000 0.62491  0.00005  0.12491  Biso   1.000  Hf
  Hf49     1.0000 0.62505  0.24996  0.37507  Biso   1.000  Hf
  Hf50     1.0000 0.87640  0.24920  0.12454  Biso   1.000  Hf
  Hf51     1.0000 0.87593  0.00095  0.37389  Biso   1.000  Hf
  Hf52     1.0000 0.49539  0.14736  0.99675  Biso   1.000  Hf
  Hf53     1.0000 0.50182  0.10298  0.24861  Biso   1.000  Hf
  Hf54     1.0000 0.49812  0.35232  0.25134  Biso   1.000  Hf
  Hf55     1.0000 0.50080  0.39731  0.00054  Biso   1.000  Hf
  Hf56     1.0000 0.75443  0.14736  0.25307  Biso   1.000  Hf
  Hf57     1.0000 0.74800  0.10298  0.00121  Biso   1.000  Hf
  Hf58     1.0000 0.75170  0.35232  0.99848  Biso   1.000  Hf
  Hf59     1.0000 0.74902  0.39731  0.24928  Biso   1.000  Hf
  Hf60     1.0000 0.62491  0.00006  0.62491  Biso   1.000  Hf
  Hf61     1.0000 0.62477  0.24996  0.87475  Biso   1.000  Hf
  Hf62     1.0000 0.87474  0.24996  0.62477  Biso   1.000  Hf
  Hf63     1.0000 0.87593  0.99916  0.87593  Biso   1.000  Hf
  Hf64     1.0000 0.49720  0.14693  0.49720  Biso   1.000  Hf
  Hf65     1.0000 0.50126  0.10327  0.74856  Biso   1.000  Hf
  Hf66     1.0000 0.49866  0.35342  0.75116  Biso   1.000  Hf
  Hf67     1.0000 0.50075  0.39680  0.50075  Biso   1.000  Hf
  Hf68     1.0000 0.75261  0.14693  0.75261  Biso   1.000  Hf
  Hf69     1.0000 0.74856  0.10327  0.50126  Biso   1.000  Hf
  Hf70     1.0000 0.75116  0.35342  0.49866  Biso   1.000  Hf
  Hf71     1.0000 0.74906  0.39680  0.74906  Biso   1.000  Hf
  Hf72     1.0000 0.62491  0.50005  0.12491  Biso   1.000  Hf
  Hf73     1.0000 0.62477  0.75015  0.37507  Biso   1.000  Hf
  Hf74     1.0000 0.87640  0.75091  0.12528  Biso   1.000  Hf
  Hf75     1.0000 0.87475  0.50043  0.37507  Biso   1.000  Hf
  Hf76     1.0000 0.49812  0.64779  0.99848  Biso   1.000  Hf
  Hf77     1.0000 0.50080  0.60280  0.24928  Biso   1.000  Hf
  Hf78     1.0000 0.49539  0.85274  0.25307  Biso   1.000  Hf
  Hf79     1.0000 0.50182  0.89713  0.00121  Biso   1.000  Hf
  Hf80     1.0000 0.75170  0.64779  0.25134  Biso   1.000  Hf
  Hf81     1.0000 0.74902  0.60280  0.00054  Biso   1.000  Hf
  Hf82     1.0000 0.75443  0.85274  0.99675  Biso   1.000  Hf
  Hf83     1.0000 0.74800  0.89713  0.24861  Biso   1.000  Hf
  Hf84     1.0000 0.62491  0.50005  0.62491  Biso   1.000  Hf
  Hf85     1.0000 0.62505  0.75015  0.87475  Biso   1.000  Hf
  Hf86     1.0000 0.87474  0.75015  0.62505  Biso   1.000  Hf
  Hf87     1.0000 0.87475  0.49967  0.87474  Biso   1.000  Hf
  Hf88     1.0000 0.49866  0.64669  0.49866  Biso   1.000  Hf
  Hf89     1.0000 0.50075  0.60331  0.74906  Biso   1.000  Hf
  Hf90     1.0000 0.49720  0.85318  0.75261  Biso   1.000  Hf
  Hf91     1.0000 0.50126  0.89684  0.50126  Biso   1.000  Hf
  Hf92     1.0000 0.75116  0.64669  0.75116  Biso   1.000  Hf
  Hf93     1.0000 0.74906  0.60331  0.50075  Biso   1.000  Hf
  Hf94     1.0000 0.75261  0.85318  0.49720  Biso   1.000  Hf
  Hf95     1.0000 0.74856  0.89684  0.74856  Biso   1.000  Hf
