data_image0
_cell_length_a       5.04633
_cell_length_b       10.6152
_cell_length_c       10.0683
_cell_angle_alpha    93.9654
_cell_angle_beta     88.614
_cell_angle_gamma    89.8393

_symmetry_space_group_name_H-M    "P 1"
_symmetry_int_tables_number       1

loop_
  _symmetry_equiv_pos_as_xyz
  'x, y, z'

loop_
  _atom_site_label
  _atom_site_occupancy
  _atom_site_fract_x
  _atom_site_fract_y
  _atom_site_fract_z
  _atom_site_thermal_displace_type
  _atom_site_B_iso_or_equiv
  _atom_site_type_symbol
  Hf1      1.0000 0.26037  0.93530  0.12678  Biso   1.000  Hf
  Hf2      1.0000 0.27770  0.27442  0.39694  Biso   1.000  Hf
  Hf3      1.0000 0.74918  0.27242  0.12802  Biso   1.000  Hf
  Hf4      1.0000 0.76172  0.02467  0.37936  Biso   1.000  Hf
  Hf5      1.0000 0.95866  0.15834  0.98014  Biso   1.000  Hf
  Hf6      1.0000 0.03704  0.06360  0.24384  Biso   1.000  Hf
  Hf7      1.0000 0.06546  0.32583  0.23826  Biso   1.000  Hf
  Hf8      1.0000 0.98135  0.40289  0.99100  Biso   1.000  Hf
  Hf9      1.0000 0.55693  0.16366  0.26762  Biso   1.000  Hf
  Hf10     1.0000 0.48911  0.04882  0.01140  Biso   1.000  Hf
  Hf11     1.0000 0.44020  0.31117  0.01200  Biso   1.000  Hf
  Hf12     1.0000 0.53176  0.40571  0.25958  Biso   1.000  Hf
  Hf13     1.0000 0.27274  0.00111  0.63587  Biso   1.000  Hf
  Hf14     1.0000 0.19958  0.26699  0.85571  Biso   1.000  Hf
  Hf15     1.0000 0.70132  0.24941  0.63676  Biso   1.000  Hf
  Hf16     1.0000 0.76289  0.01288  0.86900  Biso   1.000  Hf
  Hf17     1.0000 0.95352  0.19190  0.48006  Biso   1.000  Hf
  Hf18     1.0000 0.98226  0.12186  0.73017  Biso   1.000  Hf
  Hf19     1.0000 0.98062  0.37480  0.72960  Biso   1.000  Hf
  Hf20     1.0000 0.07460  0.44509  0.46990  Biso   1.000  Hf
  Hf21     1.0000 0.48840  0.13879  0.76999  Biso   1.000  Hf
  Hf22     1.0000 0.47602  0.12137  0.51052  Biso   1.000  Hf
  Hf23     1.0000 0.56622  0.38331  0.51061  Biso   1.000  Hf
  Hf24     1.0000 0.48522  0.39556  0.77455  Biso   1.000  Hf
  Hf25     1.0000 0.26208  0.48307  0.13675  Biso   1.000  Hf
  Hf26     1.0000 0.26407  0.77283  0.39124  Biso   1.000  Hf
  Hf27     1.0000 0.73097  0.71660  0.13488  Biso   1.000  Hf
  Hf28     1.0000 0.74326  0.52546  0.39121  Biso   1.000  Hf
  Hf29     1.0000 0.99007  0.65223  0.97912  Biso   1.000  Hf
  Hf30     1.0000 0.94074  0.56744  0.22289  Biso   1.000  Hf
  Hf31     1.0000 0.03776  0.80649  0.23240  Biso   1.000  Hf
  Hf32     1.0000 0.99080  0.89972  0.97845  Biso   1.000  Hf
  Hf33     1.0000 0.46061  0.64095  0.26427  Biso   1.000  Hf
  Hf34     1.0000 0.53502  0.55618  0.02117  Biso   1.000  Hf
  Hf35     1.0000 0.46687  0.79284  0.01025  Biso   1.000  Hf
  Hf36     1.0000 0.53973  0.88828  0.26292  Biso   1.000  Hf
  Hf37     1.0000 0.27881  0.49485  0.63537  Biso   1.000  Hf
  Hf38     1.0000 0.20940  0.76121  0.86066  Biso   1.000  Hf
  Hf39     1.0000 0.71763  0.75163  0.63638  Biso   1.000  Hf
  Hf40     1.0000 0.78009  0.51621  0.86437  Biso   1.000  Hf
  Hf41     1.0000 0.94050  0.69049  0.47280  Biso   1.000  Hf
  Hf42     1.0000 0.00011  0.62378  0.72578  Biso   1.000  Hf
  Hf43     1.0000 0.99546  0.87193  0.72768  Biso   1.000  Hf
  Hf44     1.0000 0.05642  0.93893  0.47698  Biso   1.000  Hf
  Hf45     1.0000 0.50464  0.64015  0.76623  Biso   1.000  Hf
  Hf46     1.0000 0.46264  0.62967  0.51685  Biso   1.000  Hf
  Hf47     1.0000 0.53166  0.87549  0.51637  Biso   1.000  Hf
  Hf48     1.0000 0.48723  0.89094  0.76512  Biso   1.000  Hf
  Re1      1.0000 0.25694  0.17604  0.12528  Biso   1.000  Re
