data_image0
_cell_length_a       10.1065
_cell_length_b       10.3025
_cell_length_c       10.0809
_cell_angle_alpha    89.5405
_cell_angle_beta     87.2952
_cell_angle_gamma    89.3086

_symmetry_space_group_name_H-M    "P 1"
_symmetry_int_tables_number       1

loop_
  _symmetry_equiv_pos_as_xyz
  'x, y, z'

loop_
  _atom_site_label
  _atom_site_occupancy
  _atom_site_fract_x
  _atom_site_fract_y
  _atom_site_fract_z
  _atom_site_thermal_displace_type
  _atom_site_B_iso_or_equiv
  _atom_site_type_symbol
  Hf1      1.0000 0.11081  0.94432  0.12513  Biso   1.000  Hf
  Hf2      1.0000 0.13324  0.27663  0.38721  Biso   1.000  Hf
  Hf3      1.0000 0.37938  0.26734  0.14439  Biso   1.000  Hf
  Hf4      1.0000 0.37239  0.99238  0.37205  Biso   1.000  Hf
  Hf5      1.0000 0.97577  0.15845  0.99820  Biso   1.000  Hf
  Hf6      1.0000 0.01977  0.06816  0.26326  Biso   1.000  Hf
  Hf7      1.0000 0.00079  0.32845  0.24708  Biso   1.000  Hf
  Hf8      1.0000 0.99003  0.40378  0.99563  Biso   1.000  Hf
  Hf9      1.0000 0.26583  0.15432  0.27949  Biso   1.000  Hf
  Hf10     1.0000 0.21975  0.07524  0.00302  Biso   1.000  Hf
  Hf11     1.0000 0.22927  0.32485  0.02279  Biso   1.000  Hf
  Hf12     1.0000 0.24681  0.41637  0.25795  Biso   1.000  Hf
  Hf13     1.0000 0.13439  0.00515  0.62602  Biso   1.000  Hf
  Hf14     1.0000 0.11989  0.24808  0.87339  Biso   1.000  Hf
  Hf15     1.0000 0.39232  0.24477  0.63528  Biso   1.000  Hf
  Hf16     1.0000 0.36498  0.99988  0.88134  Biso   1.000  Hf
  Hf17     1.0000 0.04646  0.16145  0.52364  Biso   1.000  Hf
  Hf18     1.0000 0.99904  0.10160  0.75811  Biso   1.000  Hf
  Hf19     1.0000 0.01800  0.35512  0.74384  Biso   1.000  Hf
  Hf20     1.0000 0.01119  0.41168  0.49758  Biso   1.000  Hf
  Hf21     1.0000 0.25335  0.14447  0.76011  Biso   1.000  Hf
  Hf22     1.0000 0.30062  0.09452  0.52830  Biso   1.000  Hf
  Hf23     1.0000 0.26817  0.35407  0.51158  Biso   1.000  Hf
  Hf24     1.0000 0.26685  0.39020  0.76061  Biso   1.000  Hf
  Hf25     1.0000 0.12125  0.50046  0.11880  Biso   1.000  Hf
  Hf26     1.0000 0.12522  0.75201  0.38276  Biso   1.000  Hf
  Hf27     1.0000 0.37161  0.74590  0.12514  Biso   1.000  Hf
  Hf28     1.0000 0.38113  0.50189  0.38754  Biso   1.000  Hf
  Hf29     1.0000 0.99644  0.65153  0.98008  Biso   1.000  Hf
  Hf30     1.0000 0.95365  0.57647  0.21535  Biso   1.000  Hf
  Hf31     1.0000 0.98130  0.82552  0.25314  Biso   1.000  Hf
  Hf32     1.0000 0.97159  0.89368  0.00039  Biso   1.000  Hf
  Hf33     1.0000 0.20074  0.66351  0.21296  Biso   1.000  Hf
  Hf34     1.0000 0.24183  0.57776  0.97196  Biso   1.000  Hf
  Hf35     1.0000 0.23991  0.82899  0.99260  Biso   1.000  Hf
  Hf36     1.0000 0.25038  0.89129  0.25357  Biso   1.000  Hf
  Hf37     1.0000 0.14403  0.48761  0.63282  Biso   1.000  Hf
  Hf38     1.0000 0.13507  0.73647  0.85608  Biso   1.000  Hf
  Hf39     1.0000 0.39332  0.77087  0.62671  Biso   1.000  Hf
  Hf40     1.0000 0.39519  0.50819  0.85753  Biso   1.000  Hf
  Hf41     1.0000 0.96366  0.66029  0.47122  Biso   1.000  Hf
  Hf42     1.0000 0.01012  0.60775  0.73136  Biso   1.000  Hf
  Hf43     1.0000 0.02270  0.85486  0.74170  Biso   1.000  Hf
  Hf44     1.0000 0.01101  0.90511  0.49811  Biso   1.000  Hf
  Hf45     1.0000 0.26385  0.64001  0.72520  Biso   1.000  Hf
  Hf46     1.0000 0.21565  0.59518  0.47240  Biso   1.000  Hf
  Hf47     1.0000 0.25506  0.85207  0.50000  Biso   1.000  Hf
  Hf48     1.0000 0.26476  0.89379  0.74780  Biso   1.000  Hf
  Hf49     1.0000 0.60457  0.98922  0.12665  Biso   1.000  Hf
  Hf50     1.0000 0.63134  0.26078  0.36781  Biso   1.000  Hf
  Hf51     1.0000 0.84820  0.27035  0.11991  Biso   1.000  Hf
  Hf52     1.0000 0.87165  0.99060  0.36996  Biso   1.000  Hf
  Hf53     1.0000 0.47262  0.13826  0.01421  Biso   1.000  Hf
  Hf54     1.0000 0.51559  0.10609  0.27291  Biso   1.000  Hf
  Hf55     1.0000 0.49561  0.36479  0.26656  Biso   1.000  Hf
  Hf56     1.0000 0.48198  0.39846  0.00554  Biso   1.000  Hf
  Hf57     1.0000 0.78006  0.15658  0.27749  Biso   1.000  Hf
  Hf58     1.0000 0.73236  0.11188  0.01785  Biso   1.000  Hf
  Hf59     1.0000 0.73993  0.36996  0.98170  Biso   1.000  Hf
  Hf60     1.0000 0.74409  0.41123  0.24458  Biso   1.000  Hf
  Hf61     1.0000 0.63634  0.01024  0.63113  Biso   1.000  Hf
  Hf62     1.0000 0.60730  0.24407  0.90039  Biso   1.000  Hf
  Hf63     1.0000 0.88277  0.24587  0.63073  Biso   1.000  Hf
  Hf64     1.0000 0.86333  0.01388  0.88629  Biso   1.000  Hf
  Hf65     1.0000 0.55186  0.16559  0.52954  Biso   1.000  Hf
  Hf66     1.0000 0.50063  0.10682  0.76688  Biso   1.000  Hf
  Hf67     1.0000 0.52141  0.35964  0.75674  Biso   1.000  Hf
  Hf68     1.0000 0.50740  0.40660  0.50927  Biso   1.000  Hf
  Hf69     1.0000 0.74830  0.15869  0.76834  Biso   1.000  Hf
  Hf70     1.0000 0.79884  0.08930  0.53183  Biso   1.000  Hf
  Hf71     1.0000 0.76494  0.34596  0.49290  Biso   1.000  Hf
  Hf72     1.0000 0.78308  0.40672  0.72804  Biso   1.000  Hf
  Hf73     1.0000 0.61732  0.50887  0.11863  Biso   1.000  Hf
  Hf74     1.0000 0.62803  0.76228  0.38056  Biso   1.000  Hf
  Hf75     1.0000 0.86407  0.74041  0.11473  Biso   1.000  Hf
  Hf76     1.0000 0.87330  0.49875  0.38208  Biso   1.000  Hf
  Hf77     1.0000 0.49667  0.64927  0.97942  Biso   1.000  Hf
  Hf78     1.0000 0.45633  0.59371  0.22055  Biso   1.000  Hf
  Hf79     1.0000 0.49145  0.84960  0.25175  Biso   1.000  Hf
  Hf80     1.0000 0.47934  0.89544  0.00857  Biso   1.000  Hf
  Hf81     1.0000 0.70375  0.66331  0.22138  Biso   1.000  Hf
  Hf82     1.0000 0.74831  0.60943  0.98505  Biso   1.000  Hf
  Hf83     1.0000 0.72860  0.85919  0.00338  Biso   1.000  Hf
  Hf84     1.0000 0.73631  0.90618  0.25531  Biso   1.000  Hf
  Hf85     1.0000 0.64293  0.49064  0.62528  Biso   1.000  Hf
  Hf86     1.0000 0.63596  0.75253  0.86661  Biso   1.000  Hf
  Hf87     1.0000 0.89157  0.76707  0.62782  Biso   1.000  Hf
  Hf88     1.0000 0.88211  0.50536  0.86639  Biso   1.000  Hf
  Hf89     1.0000 0.46774  0.66586  0.46918  Biso   1.000  Hf
  Hf90     1.0000 0.51185  0.61463  0.72665  Biso   1.000  Hf
  Hf91     1.0000 0.51606  0.86271  0.75036  Biso   1.000  Hf
  Hf92     1.0000 0.51041  0.91132  0.50265  Biso   1.000  Hf
  Hf93     1.0000 0.75818  0.65243  0.73473  Biso   1.000  Hf
  Hf94     1.0000 0.71769  0.59625  0.47053  Biso   1.000  Hf
  Hf95     1.0000 0.75318  0.85048  0.50475  Biso   1.000  Hf
  Hf96     1.0000 0.76652  0.90287  0.75415  Biso   1.000  Hf
  Re1      1.0000 0.11974  0.18775  0.13907  Biso   1.000  Re
