data_image0
_cell_length_a       9.94862
_cell_length_b       10.3485
_cell_length_c       9.98833
_cell_angle_alpha    89.8986
_cell_angle_beta     89.9773
_cell_angle_gamma    90.0152

_symmetry_space_group_name_H-M    "P 1"
_symmetry_int_tables_number       1

loop_
  _symmetry_equiv_pos_as_xyz
  'x, y, z'

loop_
  _atom_site_label
  _atom_site_occupancy
  _atom_site_fract_x
  _atom_site_fract_y
  _atom_site_fract_z
  _atom_site_thermal_displace_type
  _atom_site_B_iso_or_equiv
  _atom_site_type_symbol
  Re1      1.0000 0.13725  0.02126  0.12197  Biso   1.000  Re
  Hf1      1.0000 0.13282  0.23217  0.37531  Biso   1.000  Hf
  Hf2      1.0000 0.36654  0.26742  0.12586  Biso   1.000  Hf
  Hf3      1.0000 0.36599  0.48424  0.37625  Biso   1.000  Hf
  Hf4      1.0000 0.03565  0.17907  0.19679  Biso   1.000  Hf
  Hf5      1.0000 0.03445  0.06759  0.45052  Biso   1.000  Hf
  Hf6      1.0000 0.46344  0.43495  0.19354  Biso   1.000  Hf
  Hf7      1.0000 0.46337  0.31629  0.44376  Biso   1.000  Hf
  Hf8      1.0000 0.26806  0.11735  0.24603  Biso   1.000  Hf
  Hf9      1.0000 0.27082  0.13241  0.49853  Biso   1.000  Hf
  Hf10     1.0000 0.22916  0.38227  0.49995  Biso   1.000  Hf
  Hf11     1.0000 0.22996  0.36814  0.25032  Biso   1.000  Hf
  Hf12     1.0000 0.13448  0.01637  0.62722  Biso   1.000  Hf
  Hf13     1.0000 0.13504  0.23370  0.87797  Biso   1.000  Hf
  Hf14     1.0000 0.36590  0.26668  0.62579  Biso   1.000  Hf
  Hf15     1.0000 0.36589  0.48393  0.87571  Biso   1.000  Hf
  Hf16     1.0000 0.03440  0.18191  0.70112  Biso   1.000  Hf
  Hf17     1.0000 0.03673  0.06494  0.95766  Biso   1.000  Hf
  Hf18     1.0000 0.46308  0.43473  0.69351  Biso   1.000  Hf
  Hf19     1.0000 0.46208  0.31436  0.94316  Biso   1.000  Hf
  Hf20     1.0000 0.27093  0.11805  0.75038  Biso   1.000  Hf
  Hf21     1.0000 0.27232  0.12803  0.00064  Biso   1.000  Hf
  Hf22     1.0000 0.22909  0.38136  0.00029  Biso   1.000  Hf
  Hf23     1.0000 0.22881  0.36719  0.75051  Biso   1.000  Hf
  Hf24     1.0000 0.13464  0.51646  0.12680  Biso   1.000  Hf
  Hf25     1.0000 0.13369  0.73520  0.37526  Biso   1.000  Hf
  Hf26     1.0000 0.36402  0.76861  0.12652  Biso   1.000  Hf
  Hf27     1.0000 0.36494  0.98384  0.37478  Biso   1.000  Hf
  Hf28     1.0000 0.03704  0.68298  0.19384  Biso   1.000  Hf
  Hf29     1.0000 0.03638  0.56643  0.44348  Biso   1.000  Hf
  Hf30     1.0000 0.46424  0.93399  0.19489  Biso   1.000  Hf
  Hf31     1.0000 0.46317  0.81599  0.44277  Biso   1.000  Hf
  Hf32     1.0000 0.27145  0.62018  0.25006  Biso   1.000  Hf
  Hf33     1.0000 0.27038  0.63270  0.49942  Biso   1.000  Hf
  Hf34     1.0000 0.22941  0.88266  0.49973  Biso   1.000  Hf
  Hf35     1.0000 0.22503  0.87341  0.24786  Biso   1.000  Hf
  Hf36     1.0000 0.13359  0.51637  0.62543  Biso   1.000  Hf
  Hf37     1.0000 0.13331  0.73278  0.87597  Biso   1.000  Hf
  Hf38     1.0000 0.36623  0.76636  0.62544  Biso   1.000  Hf
  Hf39     1.0000 0.36541  0.98217  0.87679  Biso   1.000  Hf
  Hf40     1.0000 0.03603  0.68392  0.69373  Biso   1.000  Hf
  Hf41     1.0000 0.03642  0.56463  0.94490  Biso   1.000  Hf
  Hf42     1.0000 0.46330  0.93444  0.69385  Biso   1.000  Hf
  Hf43     1.0000 0.46192  0.81503  0.94451  Biso   1.000  Hf
  Hf44     1.0000 0.27036  0.61740  0.74945  Biso   1.000  Hf
  Hf45     1.0000 0.27115  0.63193  0.99983  Biso   1.000  Hf
  Hf46     1.0000 0.22382  0.88207  0.00136  Biso   1.000  Hf
  Hf47     1.0000 0.23000  0.86697  0.75032  Biso   1.000  Hf
  Hf48     1.0000 0.63395  0.01643  0.12554  Biso   1.000  Hf
  Hf49     1.0000 0.63391  0.23372  0.37619  Biso   1.000  Hf
  Hf50     1.0000 0.86624  0.26518  0.12637  Biso   1.000  Hf
  Hf51     1.0000 0.86594  0.48372  0.37608  Biso   1.000  Hf
  Hf52     1.0000 0.53572  0.18428  0.19420  Biso   1.000  Hf
  Hf53     1.0000 0.53558  0.06598  0.44352  Biso   1.000  Hf
  Hf54     1.0000 0.96517  0.43171  0.19524  Biso   1.000  Hf
  Hf55     1.0000 0.96406  0.31605  0.44552  Biso   1.000  Hf
  Hf56     1.0000 0.76938  0.11800  0.24951  Biso   1.000  Hf
  Hf57     1.0000 0.77059  0.13270  0.49922  Biso   1.000  Hf
  Hf58     1.0000 0.72935  0.38247  0.50001  Biso   1.000  Hf
  Hf59     1.0000 0.72959  0.36798  0.24982  Biso   1.000  Hf
  Hf60     1.0000 0.63385  0.01620  0.62482  Biso   1.000  Hf
  Hf61     1.0000 0.63365  0.23306  0.87553  Biso   1.000  Hf
  Hf62     1.0000 0.86610  0.26557  0.62643  Biso   1.000  Hf
  Hf63     1.0000 0.86572  0.48315  0.87618  Biso   1.000  Hf
  Hf64     1.0000 0.53677  0.18475  0.69308  Biso   1.000  Hf
  Hf65     1.0000 0.53657  0.06488  0.94355  Biso   1.000  Hf
  Hf66     1.0000 0.96356  0.43367  0.69437  Biso   1.000  Hf
  Hf67     1.0000 0.96389  0.31462  0.94492  Biso   1.000  Hf
  Hf68     1.0000 0.77003  0.11698  0.74969  Biso   1.000  Hf
  Hf69     1.0000 0.77075  0.13208  0.99937  Biso   1.000  Hf
  Hf70     1.0000 0.72912  0.38150  0.00004  Biso   1.000  Hf
  Hf71     1.0000 0.72943  0.36738  0.74973  Biso   1.000  Hf
  Hf72     1.0000 0.63471  0.51725  0.12607  Biso   1.000  Hf
  Hf73     1.0000 0.63475  0.73463  0.37439  Biso   1.000  Hf
  Hf74     1.0000 0.86915  0.76797  0.12458  Biso   1.000  Hf
  Hf75     1.0000 0.86927  0.98486  0.37329  Biso   1.000  Hf
  Hf76     1.0000 0.53655  0.68533  0.19276  Biso   1.000  Hf
  Hf77     1.0000 0.53685  0.56654  0.44352  Biso   1.000  Hf
  Hf78     1.0000 0.97081  0.93426  0.19193  Biso   1.000  Hf
  Hf79     1.0000 0.96432  0.81661  0.44488  Biso   1.000  Hf
  Hf80     1.0000 0.77147  0.61815  0.24955  Biso   1.000  Hf
  Hf81     1.0000 0.77067  0.63293  0.49961  Biso   1.000  Hf
  Hf82     1.0000 0.73017  0.88329  0.49794  Biso   1.000  Hf
  Hf83     1.0000 0.73311  0.86855  0.24789  Biso   1.000  Hf
  Hf84     1.0000 0.63415  0.51675  0.62568  Biso   1.000  Hf
  Hf85     1.0000 0.63393  0.73339  0.87614  Biso   1.000  Hf
  Hf86     1.0000 0.86587  0.76699  0.62589  Biso   1.000  Hf
  Hf87     1.0000 0.86605  0.98338  0.87641  Biso   1.000  Hf
  Hf88     1.0000 0.53656  0.68468  0.69407  Biso   1.000  Hf
  Hf89     1.0000 0.53714  0.56472  0.94302  Biso   1.000  Hf
  Hf90     1.0000 0.96482  0.93385  0.69660  Biso   1.000  Hf
  Hf91     1.0000 0.96152  0.81439  0.94107  Biso   1.000  Hf
  Hf92     1.0000 0.77056  0.61772  0.74986  Biso   1.000  Hf
  Hf93     1.0000 0.77105  0.63217  0.99978  Biso   1.000  Hf
  Hf94     1.0000 0.72879  0.88259  0.99851  Biso   1.000  Hf
  Hf95     1.0000 0.72926  0.86809  0.74936  Biso   1.000  Hf
