data_image0
_cell_length_a       10.1393
_cell_length_b       10.2684
_cell_length_c       5.07637
_cell_angle_alpha    90.001
_cell_angle_beta     86.32
_cell_angle_gamma    89.9944

_symmetry_space_group_name_H-M    "P 1"
_symmetry_int_tables_number       1

loop_
  _symmetry_equiv_pos_as_xyz
  'x, y, z'

loop_
  _atom_site_label
  _atom_site_occupancy
  _atom_site_fract_x
  _atom_site_fract_y
  _atom_site_fract_z
  _atom_site_thermal_displace_type
  _atom_site_B_iso_or_equiv
  _atom_site_type_symbol
  Hf1      1.0000 0.12473  0.95434  0.25014  Biso   1.000  Hf
  Hf2      1.0000 0.12472  0.28972  0.75016  Biso   1.000  Hf
  Hf3      1.0000 0.37913  0.24800  0.30568  Biso   1.000  Hf
  Hf4      1.0000 0.37105  0.00251  0.78578  Biso   1.000  Hf
  Hf5      1.0000 0.97165  0.16476  0.84417  Biso   1.000  Hf
  Hf6      1.0000 0.97030  0.07925  0.35978  Biso   1.000  Hf
  Hf7      1.0000 0.00346  0.35174  0.45476  Biso   1.000  Hf
  Hf8      1.0000 0.99044  0.41401  0.97987  Biso   1.000  Hf
  Hf9      1.0000 0.27779  0.16473  0.65615  Biso   1.000  Hf
  Hf10     1.0000 0.27915  0.07923  0.14055  Biso   1.000  Hf
  Hf11     1.0000 0.24594  0.35169  0.04561  Biso   1.000  Hf
  Hf12     1.0000 0.25899  0.41398  0.52044  Biso   1.000  Hf
  Hf13     1.0000 0.12471  0.51226  0.25015  Biso   1.000  Hf
  Hf14     1.0000 0.12472  0.74066  0.75016  Biso   1.000  Hf
  Hf15     1.0000 0.38833  0.75945  0.27050  Biso   1.000  Hf
  Hf16     1.0000 0.38956  0.49386  0.77537  Biso   1.000  Hf
  Hf17     1.0000 0.01394  0.66086  0.07524  Biso   1.000  Hf
  Hf18     1.0000 0.01284  0.59247  0.57211  Biso   1.000  Hf
  Hf19     1.0000 0.99255  0.83998  0.48978  Biso   1.000  Hf
  Hf20     1.0000 0.00482  0.89928  0.95795  Biso   1.000  Hf
  Hf21     1.0000 0.23550  0.66084  0.42505  Biso   1.000  Hf
  Hf22     1.0000 0.23655  0.59241  0.92815  Biso   1.000  Hf
  Hf23     1.0000 0.25691  0.83995  0.01052  Biso   1.000  Hf
  Hf24     1.0000 0.24466  0.89924  0.54231  Biso   1.000  Hf
  Hf25     1.0000 0.62475  0.00807  0.25016  Biso   1.000  Hf
  Hf26     1.0000 0.62469  0.24067  0.75019  Biso   1.000  Hf
  Hf27     1.0000 0.87028  0.24805  0.19466  Biso   1.000  Hf
  Hf28     1.0000 0.87842  0.00255  0.71456  Biso   1.000  Hf
  Hf29     1.0000 0.50469  0.14923  0.02034  Biso   1.000  Hf
  Hf30     1.0000 0.50172  0.10354  0.51578  Biso   1.000  Hf
  Hf31     1.0000 0.50749  0.35617  0.53592  Biso   1.000  Hf
  Hf32     1.0000 0.49207  0.39740  0.04788  Biso   1.000  Hf
  Hf33     1.0000 0.74474  0.14928  0.48000  Biso   1.000  Hf
  Hf34     1.0000 0.74773  0.10357  0.98458  Biso   1.000  Hf
  Hf35     1.0000 0.74195  0.35618  0.96422  Biso   1.000  Hf
  Hf36     1.0000 0.75739  0.39746  0.45222  Biso   1.000  Hf
  Hf37     1.0000 0.62470  0.50015  0.25008  Biso   1.000  Hf
  Hf38     1.0000 0.62474  0.75711  0.75027  Biso   1.000  Hf
  Hf39     1.0000 0.86112  0.75944  0.22999  Biso   1.000  Hf
  Hf40     1.0000 0.85988  0.49386  0.72483  Biso   1.000  Hf
  Hf41     1.0000 0.49858  0.64623  0.99940  Biso   1.000  Hf
  Hf42     1.0000 0.49688  0.60845  0.50017  Biso   1.000  Hf
  Hf43     1.0000 0.49548  0.85761  0.53091  Biso   1.000  Hf
  Hf44     1.0000 0.50523  0.89821  0.02262  Biso   1.000  Hf
  Hf45     1.0000 0.75083  0.64625  0.50091  Biso   1.000  Hf
  Hf46     1.0000 0.75253  0.60848  0.00009  Biso   1.000  Hf
  Hf47     1.0000 0.75397  0.85765  0.96962  Biso   1.000  Hf
  Hf48     1.0000 0.74421  0.89824  0.47790  Biso   1.000  Hf
  Rh1      1.0000 0.12470  0.20390  0.25014  Biso   1.000  Rh
