data_image0
_cell_length_a       9.94613
_cell_length_b       10.368
_cell_length_c       9.99283
_cell_angle_alpha    90.1372
_cell_angle_beta     89.7223
_cell_angle_gamma    90.1457

_symmetry_space_group_name_H-M    "P 1"
_symmetry_int_tables_number       1

loop_
  _symmetry_equiv_pos_as_xyz
  'x, y, z'

loop_
  _atom_site_label
  _atom_site_occupancy
  _atom_site_fract_x
  _atom_site_fract_y
  _atom_site_fract_z
  _atom_site_thermal_displace_type
  _atom_site_B_iso_or_equiv
  _atom_site_type_symbol
  Rh1      1.0000 0.12754  0.03345  0.10816  Biso   1.000  Rh
  Hf1      1.0000 0.13406  0.23071  0.37495  Biso   1.000  Hf
  Hf2      1.0000 0.36657  0.26591  0.12652  Biso   1.000  Hf
  Hf3      1.0000 0.36666  0.48298  0.37652  Biso   1.000  Hf
  Hf4      1.0000 0.03513  0.18446  0.19191  Biso   1.000  Hf
  Hf5      1.0000 0.03647  0.06637  0.44902  Biso   1.000  Hf
  Hf6      1.0000 0.46428  0.43326  0.19374  Biso   1.000  Hf
  Hf7      1.0000 0.46409  0.31585  0.44458  Biso   1.000  Hf
  Hf8      1.0000 0.26410  0.11087  0.24673  Biso   1.000  Hf
  Hf9      1.0000 0.27197  0.13185  0.49834  Biso   1.000  Hf
  Hf10     1.0000 0.22895  0.38141  0.49994  Biso   1.000  Hf
  Hf11     1.0000 0.23065  0.36441  0.24997  Biso   1.000  Hf
  Hf12     1.0000 0.13480  0.01706  0.62817  Biso   1.000  Hf
  Hf13     1.0000 0.13352  0.23763  0.87473  Biso   1.000  Hf
  Hf14     1.0000 0.36607  0.26646  0.62554  Biso   1.000  Hf
  Hf15     1.0000 0.36591  0.48505  0.87608  Biso   1.000  Hf
  Hf16     1.0000 0.03513  0.18449  0.69711  Biso   1.000  Hf
  Hf17     1.0000 0.03519  0.06468  0.94068  Biso   1.000  Hf
  Hf18     1.0000 0.46336  0.43449  0.69447  Biso   1.000  Hf
  Hf19     1.0000 0.46075  0.31424  0.94313  Biso   1.000  Hf
  Hf20     1.0000 0.27136  0.11927  0.75114  Biso   1.000  Hf
  Hf21     1.0000 0.26614  0.13243  0.00060  Biso   1.000  Hf
  Hf22     1.0000 0.22924  0.38319  0.99976  Biso   1.000  Hf
  Hf23     1.0000 0.22890  0.36884  0.74972  Biso   1.000  Hf
  Hf24     1.0000 0.13394  0.51512  0.12658  Biso   1.000  Hf
  Hf25     1.0000 0.13599  0.73287  0.37718  Biso   1.000  Hf
  Hf26     1.0000 0.36539  0.76537  0.12800  Biso   1.000  Hf
  Hf27     1.0000 0.36365  0.98023  0.37433  Biso   1.000  Hf
  Hf28     1.0000 0.03775  0.68373  0.19457  Biso   1.000  Hf
  Hf29     1.0000 0.03627  0.56423  0.44550  Biso   1.000  Hf
  Hf30     1.0000 0.46862  0.93189  0.19625  Biso   1.000  Hf
  Hf31     1.0000 0.46722  0.81680  0.44934  Biso   1.000  Hf
  Hf32     1.0000 0.27025  0.61163  0.24974  Biso   1.000  Hf
  Hf33     1.0000 0.27238  0.63199  0.50071  Biso   1.000  Hf
  Hf34     1.0000 0.22926  0.88189  0.50475  Biso   1.000  Hf
  Hf35     1.0000 0.24234  0.85520  0.25983  Biso   1.000  Hf
  Hf36     1.0000 0.13415  0.51709  0.62599  Biso   1.000  Hf
  Hf37     1.0000 0.13322  0.73487  0.87855  Biso   1.000  Hf
  Hf38     1.0000 0.36617  0.76722  0.62816  Biso   1.000  Hf
  Hf39     1.0000 0.36377  0.98295  0.87942  Biso   1.000  Hf
  Hf40     1.0000 0.03662  0.68516  0.69470  Biso   1.000  Hf
  Hf41     1.0000 0.03502  0.56628  0.94539  Biso   1.000  Hf
  Hf42     1.0000 0.46310  0.93478  0.69699  Biso   1.000  Hf
  Hf43     1.0000 0.46019  0.81568  0.94327  Biso   1.000  Hf
  Hf44     1.0000 0.26983  0.61841  0.75116  Biso   1.000  Hf
  Hf45     1.0000 0.26950  0.63352  0.00035  Biso   1.000  Hf
  Hf46     1.0000 0.22543  0.88702  0.00872  Biso   1.000  Hf
  Hf47     1.0000 0.22880  0.86860  0.75430  Biso   1.000  Hf
  Hf48     1.0000 0.63430  0.01639  0.12610  Biso   1.000  Hf
  Hf49     1.0000 0.63381  0.23280  0.37659  Biso   1.000  Hf
  Hf50     1.0000 0.86367  0.26674  0.12491  Biso   1.000  Hf
  Hf51     1.0000 0.86624  0.48346  0.37618  Biso   1.000  Hf
  Hf52     1.0000 0.53469  0.18356  0.19580  Biso   1.000  Hf
  Hf53     1.0000 0.53616  0.06519  0.44299  Biso   1.000  Hf
  Hf54     1.0000 0.96404  0.43213  0.19513  Biso   1.000  Hf
  Hf55     1.0000 0.96342  0.31430  0.44288  Biso   1.000  Hf
  Hf56     1.0000 0.77022  0.11810  0.24864  Biso   1.000  Hf
  Hf57     1.0000 0.77118  0.13253  0.49831  Biso   1.000  Hf
  Hf58     1.0000 0.72978  0.38234  0.50013  Biso   1.000  Hf
  Hf59     1.0000 0.72847  0.36786  0.24992  Biso   1.000  Hf
  Hf60     1.0000 0.63191  0.01537  0.62284  Biso   1.000  Hf
  Hf61     1.0000 0.63258  0.23336  0.87470  Biso   1.000  Hf
  Hf62     1.0000 0.86565  0.26605  0.62509  Biso   1.000  Hf
  Hf63     1.0000 0.86501  0.48443  0.87541  Biso   1.000  Hf
  Hf64     1.0000 0.53646  0.18477  0.69273  Biso   1.000  Hf
  Hf65     1.0000 0.53401  0.06689  0.94648  Biso   1.000  Hf
  Hf66     1.0000 0.96366  0.43407  0.69415  Biso   1.000  Hf
  Hf67     1.0000 0.96277  0.31631  0.94389  Biso   1.000  Hf
  Hf68     1.0000 0.76842  0.11671  0.74794  Biso   1.000  Hf
  Hf69     1.0000 0.77021  0.13243  0.99773  Biso   1.000  Hf
  Hf70     1.0000 0.72808  0.38226  0.99960  Biso   1.000  Hf
  Hf71     1.0000 0.72908  0.36755  0.74954  Biso   1.000  Hf
  Hf72     1.0000 0.63503  0.51743  0.12759  Biso   1.000  Hf
  Hf73     1.0000 0.63593  0.73507  0.37528  Biso   1.000  Hf
  Hf74     1.0000 0.87160  0.76736  0.12387  Biso   1.000  Hf
  Hf75     1.0000 0.87030  0.98616  0.37352  Biso   1.000  Hf
  Hf76     1.0000 0.53735  0.68442  0.19596  Biso   1.000  Hf
  Hf77     1.0000 0.53770  0.56613  0.44360  Biso   1.000  Hf
  Hf78     1.0000 0.97571  0.93885  0.18946  Biso   1.000  Hf
  Hf79     1.0000 0.96484  0.81652  0.44187  Biso   1.000  Hf
  Hf80     1.0000 0.77277  0.61762  0.24976  Biso   1.000  Hf
  Hf81     1.0000 0.77059  0.63318  0.49966  Biso   1.000  Hf
  Hf82     1.0000 0.73233  0.88385  0.49766  Biso   1.000  Hf
  Hf83     1.0000 0.73788  0.86814  0.24752  Biso   1.000  Hf
  Hf84     1.0000 0.63392  0.51700  0.62550  Biso   1.000  Hf
  Hf85     1.0000 0.63271  0.73327  0.87654  Biso   1.000  Hf
  Hf86     1.0000 0.86733  0.76688  0.62435  Biso   1.000  Hf
  Hf87     1.0000 0.86092  0.98230  0.87331  Biso   1.000  Hf
  Hf88     1.0000 0.53563  0.68353  0.69587  Biso   1.000  Hf
  Hf89     1.0000 0.53608  0.56560  0.94576  Biso   1.000  Hf
  Hf90     1.0000 0.96344  0.93466  0.69395  Biso   1.000  Hf
  Hf91     1.0000 0.96077  0.81635  0.94092  Biso   1.000  Hf
  Hf92     1.0000 0.77024  0.61790  0.74978  Biso   1.000  Hf
  Hf93     1.0000 0.77069  0.63329  0.00027  Biso   1.000  Hf
  Hf94     1.0000 0.72692  0.88229  0.99842  Biso   1.000  Hf
  Hf95     1.0000 0.72841  0.86684  0.74819  Biso   1.000  Hf
