data_image0
_cell_length_a       9.94707
_cell_length_b       5.20345
_cell_length_c       10.0128
_cell_angle_alpha    91.5647
_cell_angle_beta     89.4223
_cell_angle_gamma    90.1315

_symmetry_space_group_name_H-M    "P 1"
_symmetry_int_tables_number       1

loop_
  _symmetry_equiv_pos_as_xyz
  'x, y, z'

loop_
  _atom_site_label
  _atom_site_occupancy
  _atom_site_fract_x
  _atom_site_fract_y
  _atom_site_fract_z
  _atom_site_thermal_displace_type
  _atom_site_B_iso_or_equiv
  _atom_site_type_symbol
  Rh1      1.0000 0.11900  0.07373  0.10634  Biso   1.000  Rh
  Hf1      1.0000 0.13704  0.44186  0.37777  Biso   1.000  Hf
  Hf2      1.0000 0.38535  0.53974  0.11191  Biso   1.000  Hf
  Hf3      1.0000 0.36420  0.94112  0.37500  Biso   1.000  Hf
  Hf4      1.0000 0.03494  0.37795  0.19051  Biso   1.000  Hf
  Hf5      1.0000 0.03000  0.13341  0.45950  Biso   1.000  Hf
  Hf6      1.0000 0.46835  0.87822  0.19056  Biso   1.000  Hf
  Hf7      1.0000 0.47381  0.63908  0.45928  Biso   1.000  Hf
  Hf8      1.0000 0.22392  0.11855  0.26522  Biso   1.000  Hf
  Hf9      1.0000 0.27574  0.25538  0.50280  Biso   1.000  Hf
  Hf10     1.0000 0.22641  0.75568  0.50582  Biso   1.000  Hf
  Hf11     1.0000 0.27306  0.62460  0.26850  Biso   1.000  Hf
  Hf12     1.0000 0.13621  0.03789  0.63141  Biso   1.000  Hf
  Hf13     1.0000 0.13194  0.48468  0.88079  Biso   1.000  Hf
  Hf14     1.0000 0.36501  0.53831  0.63023  Biso   1.000  Hf
  Hf15     1.0000 0.36006  0.98151  0.88202  Biso   1.000  Hf
  Hf16     1.0000 0.03795  0.37818  0.69732  Biso   1.000  Hf
  Hf17     1.0000 0.03576  0.13323  0.92819  Biso   1.000  Hf
  Hf18     1.0000 0.46047  0.87944  0.69908  Biso   1.000  Hf
  Hf19     1.0000 0.46323  0.65165  0.93181  Biso   1.000  Hf
  Hf20     1.0000 0.27164  0.24980  0.75769  Biso   1.000  Hf
  Hf21     1.0000 0.26069  0.27596  0.01185  Biso   1.000  Hf
  Hf22     1.0000 0.22676  0.78168  0.01319  Biso   1.000  Hf
  Hf23     1.0000 0.22703  0.74677  0.75749  Biso   1.000  Hf
  Hf24     1.0000 0.63824  0.04270  0.12641  Biso   1.000  Hf
  Hf25     1.0000 0.63712  0.46855  0.37839  Biso   1.000  Hf
  Hf26     1.0000 0.86664  0.54153  0.12165  Biso   1.000  Hf
  Hf27     1.0000 0.87030  0.97048  0.37435  Biso   1.000  Hf
  Hf28     1.0000 0.53849  0.37372  0.20102  Biso   1.000  Hf
  Hf29     1.0000 0.53680  0.13097  0.43867  Biso   1.000  Hf
  Hf30     1.0000 0.97401  0.87788  0.18807  Biso   1.000  Hf
  Hf31     1.0000 0.96496  0.62878  0.43552  Biso   1.000  Hf
  Hf32     1.0000 0.77619  0.23937  0.24754  Biso   1.000  Hf
  Hf33     1.0000 0.76840  0.26610  0.49735  Biso   1.000  Hf
  Hf34     1.0000 0.73609  0.76868  0.49648  Biso   1.000  Hf
  Hf35     1.0000 0.73332  0.74059  0.24666  Biso   1.000  Hf
  Hf36     1.0000 0.62767  0.02931  0.61802  Biso   1.000  Hf
  Hf37     1.0000 0.63656  0.46855  0.86907  Biso   1.000  Hf
  Hf38     1.0000 0.87151  0.53087  0.61871  Biso   1.000  Hf
  Hf39     1.0000 0.86171  0.96790  0.86840  Biso   1.000  Hf
  Hf40     1.0000 0.53489  0.36925  0.69338  Biso   1.000  Hf
  Hf41     1.0000 0.52616  0.16217  0.95533  Biso   1.000  Hf
  Hf42     1.0000 0.96411  0.86866  0.69057  Biso   1.000  Hf
  Hf43     1.0000 0.95788  0.63786  0.94063  Biso   1.000  Hf
  Hf44     1.0000 0.76688  0.22935  0.74503  Biso   1.000  Hf
  Hf45     1.0000 0.77006  0.26956  0.99615  Biso   1.000  Hf
  Hf46     1.0000 0.72474  0.77083  0.99543  Biso   1.000  Hf
  Hf47     1.0000 0.73003  0.73007  0.74363  Biso   1.000  Hf
