data_image0
_cell_length_a       5.07637
_cell_length_b       10.2684
_cell_length_c       10.1393
_cell_angle_alpha    89.9968
_cell_angle_beta     86.3189
_cell_angle_gamma    90.0006

_symmetry_space_group_name_H-M    "P 1"
_symmetry_int_tables_number       1

loop_
  _symmetry_equiv_pos_as_xyz
  'x, y, z'

loop_
  _atom_site_label
  _atom_site_occupancy
  _atom_site_fract_x
  _atom_site_fract_y
  _atom_site_fract_z
  _atom_site_thermal_displace_type
  _atom_site_B_iso_or_equiv
  _atom_site_type_symbol
  Hf1      1.0000 0.25012  0.95432  0.12446  Biso   1.000  Hf
  Hf2      1.0000 0.30561  0.24801  0.37883  Biso   1.000  Hf
  Hf3      1.0000 0.75006  0.28971  0.12442  Biso   1.000  Hf
  Hf4      1.0000 0.78568  0.00251  0.37075  Biso   1.000  Hf
  Hf5      1.0000 0.84408  0.16472  0.97137  Biso   1.000  Hf
  Hf6      1.0000 0.14050  0.07919  0.27892  Biso   1.000  Hf
  Hf7      1.0000 0.04572  0.35159  0.24557  Biso   1.000  Hf
  Hf8      1.0000 0.97988  0.41399  0.99015  Biso   1.000  Hf
  Hf9      1.0000 0.65607  0.16473  0.27751  Biso   1.000  Hf
  Hf10     1.0000 0.35972  0.07925  0.97007  Biso   1.000  Hf
  Hf11     1.0000 0.45488  0.35181  0.00309  Biso   1.000  Hf
  Hf12     1.0000 0.52044  0.41396  0.25871  Biso   1.000  Hf
  Hf13     1.0000 0.25006  0.00807  0.62442  Biso   1.000  Hf
  Hf14     1.0000 0.19458  0.24802  0.86999  Biso   1.000  Hf
  Hf15     1.0000 0.75004  0.24067  0.62442  Biso   1.000  Hf
  Hf16     1.0000 0.71447  0.00253  0.87812  Biso   1.000  Hf
  Hf17     1.0000 0.02034  0.14928  0.50444  Biso   1.000  Hf
  Hf18     1.0000 0.98455  0.10356  0.74747  Biso   1.000  Hf
  Hf19     1.0000 0.96413  0.35619  0.74166  Biso   1.000  Hf
  Hf20     1.0000 0.04776  0.39745  0.49174  Biso   1.000  Hf
  Hf21     1.0000 0.48000  0.14922  0.74450  Biso   1.000  Hf
  Hf22     1.0000 0.51575  0.10353  0.50145  Biso   1.000  Hf
  Hf23     1.0000 0.53580  0.35614  0.50720  Biso   1.000  Hf
  Hf24     1.0000 0.45216  0.39738  0.75704  Biso   1.000  Hf
  Hf25     1.0000 0.25015  0.51224  0.12446  Biso   1.000  Hf
  Hf26     1.0000 0.27026  0.75942  0.38809  Biso   1.000  Hf
  Hf27     1.0000 0.75013  0.74064  0.12448  Biso   1.000  Hf
  Hf28     1.0000 0.77513  0.49391  0.38934  Biso   1.000  Hf
  Hf29     1.0000 0.07535  0.66087  0.01377  Biso   1.000  Hf
  Hf30     1.0000 0.92824  0.59239  0.23636  Biso   1.000  Hf
  Hf31     1.0000 0.01050  0.83993  0.25664  Biso   1.000  Hf
  Hf32     1.0000 0.95799  0.89924  0.00451  Biso   1.000  Hf
  Hf33     1.0000 0.42513  0.66080  0.23533  Biso   1.000  Hf
  Hf34     1.0000 0.57223  0.59245  0.01268  Biso   1.000  Hf
  Hf35     1.0000 0.48977  0.83997  0.99228  Biso   1.000  Hf
  Hf36     1.0000 0.54232  0.89924  0.24437  Biso   1.000  Hf
  Hf37     1.0000 0.24982  0.50013  0.62450  Biso   1.000  Hf
  Hf38     1.0000 0.22970  0.75947  0.86089  Biso   1.000  Hf
  Hf39     1.0000 0.74994  0.75710  0.62453  Biso   1.000  Hf
  Hf40     1.0000 0.72460  0.49379  0.85966  Biso   1.000  Hf
  Hf41     1.0000 0.99920  0.64626  0.49838  Biso   1.000  Hf
  Hf42     1.0000 0.99993  0.60847  0.75236  Biso   1.000  Hf
  Hf43     1.0000 0.96928  0.85764  0.75372  Biso   1.000  Hf
  Hf44     1.0000 0.02236  0.89822  0.50499  Biso   1.000  Hf
  Hf45     1.0000 0.50072  0.64621  0.75066  Biso   1.000  Hf
  Hf46     1.0000 0.49999  0.60845  0.49671  Biso   1.000  Hf
  Hf47     1.0000 0.53064  0.85760  0.49523  Biso   1.000  Hf
  Hf48     1.0000 0.47759  0.89821  0.74397  Biso   1.000  Hf
  Rh1      1.0000 0.24998  0.20388  0.12437  Biso   1.000  Rh
