data_image0
_cell_length_a       10.0508
_cell_length_b       10.2203
_cell_length_c       5.03211
_cell_angle_alpha    88.3154
_cell_angle_beta     92.9989
_cell_angle_gamma    90.6419

_symmetry_space_group_name_H-M    "P 1"
_symmetry_int_tables_number       1

loop_
  _symmetry_equiv_pos_as_xyz
  'x, y, z'

loop_
  _atom_site_label
  _atom_site_occupancy
  _atom_site_fract_x
  _atom_site_fract_y
  _atom_site_fract_z
  _atom_site_thermal_displace_type
  _atom_site_B_iso_or_equiv
  _atom_site_type_symbol
  Rh1      1.0000 0.11238  0.04039  0.25468  Biso   1.000  Rh
  Hf1      1.0000 0.12021  0.24176  0.75411  Biso   1.000  Hf
  Hf2      1.0000 0.39265  0.26021  0.27065  Biso   1.000  Hf
  Hf3      1.0000 0.35652  0.99291  0.72731  Biso   1.000  Hf
  Hf4      1.0000 0.98889  0.15712  0.01302  Biso   1.000  Hf
  Hf5      1.0000 0.99773  0.09102  0.53280  Biso   1.000  Hf
  Hf6      1.0000 0.03695  0.33744  0.42309  Biso   1.000  Hf
  Hf7      1.0000 0.03224  0.40829  0.92105  Biso   1.000  Hf
  Hf8      1.0000 0.24773  0.15600  0.46598  Biso   1.000  Hf
  Hf9      1.0000 0.21833  0.07400  0.94829  Biso   1.000  Hf
  Hf10     1.0000 0.28404  0.32489  0.93014  Biso   1.000  Hf
  Hf11     1.0000 0.28773  0.41558  0.42616  Biso   1.000  Hf
  Hf12     1.0000 0.12386  0.50330  0.24103  Biso   1.000  Hf
  Hf13     1.0000 0.12579  0.74273  0.71653  Biso   1.000  Hf
  Hf14     1.0000 0.37489  0.73761  0.21238  Biso   1.000  Hf
  Hf15     1.0000 0.38735  0.48858  0.75713  Biso   1.000  Hf
  Hf16     1.0000 0.00463  0.65325  0.00356  Biso   1.000  Hf
  Hf17     1.0000 0.99971  0.59621  0.49094  Biso   1.000  Hf
  Hf18     1.0000 0.95520  0.83711  0.59949  Biso   1.000  Hf
  Hf19     1.0000 0.99044  0.91278  0.09433  Biso   1.000  Hf
  Hf20     1.0000 0.23838  0.65765  0.44879  Biso   1.000  Hf
  Hf21     1.0000 0.25134  0.58625  0.95862  Biso   1.000  Hf
  Hf22     1.0000 0.26284  0.83522  0.94010  Biso   1.000  Hf
  Hf23     1.0000 0.20959  0.91153  0.47326  Biso   1.000  Hf
  Hf24     1.0000 0.60307  0.99290  0.25460  Biso   1.000  Hf
  Hf25     1.0000 0.62349  0.23600  0.79491  Biso   1.000  Hf
  Hf26     1.0000 0.86746  0.24800  0.28001  Biso   1.000  Hf
  Hf27     1.0000 0.86677  0.99702  0.78924  Biso   1.000  Hf
  Hf28     1.0000 0.48380  0.13565  0.00961  Biso   1.000  Hf
  Hf29     1.0000 0.50052  0.10801  0.51317  Biso   1.000  Hf
  Hf30     1.0000 0.52830  0.35810  0.52010  Biso   1.000  Hf
  Hf31     1.0000 0.52075  0.38918  0.02192  Biso   1.000  Hf
  Hf32     1.0000 0.76306  0.16060  0.56783  Biso   1.000  Hf
  Hf33     1.0000 0.74026  0.10302  0.05999  Biso   1.000  Hf
  Hf34     1.0000 0.77270  0.35157  0.96768  Biso   1.000  Hf
  Hf35     1.0000 0.78592  0.41284  0.45710  Biso   1.000  Hf
  Hf36     1.0000 0.63077  0.51183  0.27606  Biso   1.000  Hf
  Hf37     1.0000 0.62091  0.75654  0.75169  Biso   1.000  Hf
  Hf38     1.0000 0.88458  0.74937  0.25682  Biso   1.000  Hf
  Hf39     1.0000 0.87281  0.51111  0.76837  Biso   1.000  Hf
  Hf40     1.0000 0.50277  0.63663  0.00018  Biso   1.000  Hf
  Hf41     1.0000 0.50201  0.60677  0.50463  Biso   1.000  Hf
  Hf42     1.0000 0.47081  0.85388  0.48734  Biso   1.000  Hf
  Hf43     1.0000 0.49845  0.88851  0.98119  Biso   1.000  Hf
  Hf44     1.0000 0.74727  0.65804  0.51152  Biso   1.000  Hf
  Hf45     1.0000 0.75305  0.60768  0.01129  Biso   1.000  Hf
  Hf46     1.0000 0.74307  0.85314  0.04154  Biso   1.000  Hf
  Hf47     1.0000 0.71358  0.91437  0.56103  Biso   1.000  Hf
