data_image0
_cell_length_a       10.0237
_cell_length_b       5.24446
_cell_length_c       10.0872
_cell_angle_alpha    90.2265
_cell_angle_beta     90.2788
_cell_angle_gamma    90.4197

_symmetry_space_group_name_H-M    "P 1"
_symmetry_int_tables_number       1

loop_
  _symmetry_equiv_pos_as_xyz
  'x, y, z'

loop_
  _atom_site_label
  _atom_site_occupancy
  _atom_site_fract_x
  _atom_site_fract_y
  _atom_site_fract_z
  _atom_site_thermal_displace_type
  _atom_site_B_iso_or_equiv
  _atom_site_type_symbol
  Hf1      1.0000 0.12447  0.10937  0.10998  Biso   1.000  Hf
  Hf2      1.0000 0.13457  0.45476  0.38967  Biso   1.000  Hf
  Hf3      1.0000 0.36904  0.52311  0.11819  Biso   1.000  Hf
  Hf4      1.0000 0.36570  0.95720  0.37340  Biso   1.000  Hf
  Hf5      1.0000 0.00671  0.36462  0.22777  Biso   1.000  Hf
  Hf6      1.0000 0.03413  0.12553  0.45456  Biso   1.000  Hf
  Hf7      1.0000 0.46439  0.85940  0.19506  Biso   1.000  Hf
  Hf8      1.0000 0.46594  0.62836  0.44725  Biso   1.000  Hf
  Hf9      1.0000 0.26283  0.20425  0.25054  Biso   1.000  Hf
  Hf10     1.0000 0.27402  0.25661  0.50053  Biso   1.000  Hf
  Hf11     1.0000 0.23192  0.76169  0.50237  Biso   1.000  Hf
  Hf12     1.0000 0.24143  0.68268  0.25973  Biso   1.000  Hf
  Hf13     1.0000 0.13520  0.02434  0.62761  Biso   1.000  Hf
  Hf14     1.0000 0.14276  0.46517  0.86658  Biso   1.000  Hf
  Hf15     1.0000 0.37138  0.52807  0.62398  Biso   1.000  Hf
  Hf16     1.0000 0.37308  0.96490  0.87171  Biso   1.000  Hf
  Hf17     1.0000 0.03926  0.36619  0.68840  Biso   1.000  Hf
  Hf18     1.0000 0.03560  0.13817  0.92815  Biso   1.000  Hf
  Hf19     1.0000 0.47131  0.86070  0.69349  Biso   1.000  Hf
  Hf20     1.0000 0.47124  0.63445  0.94256  Biso   1.000  Hf
  Hf21     1.0000 0.27305  0.22785  0.74489  Biso   1.000  Hf
  Hf22     1.0000 0.28719  0.26237  0.98380  Biso   1.000  Hf
  Hf23     1.0000 0.23851  0.79397  0.00005  Biso   1.000  Hf
  Hf24     1.0000 0.23817  0.73054  0.74803  Biso   1.000  Hf
  Hf25     1.0000 0.62924  0.02843  0.12605  Biso   1.000  Hf
  Hf26     1.0000 0.63107  0.46037  0.37727  Biso   1.000  Hf
  Hf27     1.0000 0.84769  0.53392  0.12827  Biso   1.000  Hf
  Hf28     1.0000 0.86676  0.97124  0.37510  Biso   1.000  Hf
  Hf29     1.0000 0.53056  0.35525  0.19822  Biso   1.000  Hf
  Hf30     1.0000 0.53414  0.12672  0.44647  Biso   1.000  Hf
  Hf31     1.0000 0.95415  0.89676  0.19279  Biso   1.000  Hf
  Hf32     1.0000 0.96743  0.64076  0.44994  Biso   1.000  Hf
  Hf33     1.0000 0.75919  0.22979  0.25146  Biso   1.000  Hf
  Hf34     1.0000 0.76993  0.26701  0.49888  Biso   1.000  Hf
  Hf35     1.0000 0.73275  0.76516  0.49990  Biso   1.000  Hf
  Hf36     1.0000 0.72315  0.73305  0.25258  Biso   1.000  Hf
  Hf37     1.0000 0.63684  0.02789  0.62281  Biso   1.000  Hf
  Hf38     1.0000 0.63547  0.46179  0.87276  Biso   1.000  Hf
  Hf39     1.0000 0.86973  0.53180  0.62361  Biso   1.000  Hf
  Hf40     1.0000 0.86377  0.96331  0.87463  Biso   1.000  Hf
  Hf41     1.0000 0.53865  0.36111  0.69452  Biso   1.000  Hf
  Hf42     1.0000 0.54134  0.13118  0.94364  Biso   1.000  Hf
  Hf43     1.0000 0.96946  0.85688  0.70319  Biso   1.000  Hf
  Hf44     1.0000 0.97146  0.63292  0.95497  Biso   1.000  Hf
  Hf45     1.0000 0.77333  0.22700  0.74872  Biso   1.000  Hf
  Hf46     1.0000 0.77166  0.26279  0.99942  Biso   1.000  Hf
  Hf47     1.0000 0.72843  0.76253  0.99941  Biso   1.000  Hf
  Hf48     1.0000 0.73498  0.72713  0.74992  Biso   1.000  Hf
  Ru1      1.0000 0.10217  0.62321  0.11389  Biso   1.000  Ru
