data_image0
_cell_length_a       10.1366
_cell_length_b       10.2788
_cell_length_c       5.24121
_cell_angle_alpha    90.0104
_cell_angle_beta     80.4492
_cell_angle_gamma    89.9084

_symmetry_space_group_name_H-M    "P 1"
_symmetry_int_tables_number       1

loop_
  _symmetry_equiv_pos_as_xyz
  'x, y, z'

loop_
  _atom_site_label
  _atom_site_occupancy
  _atom_site_fract_x
  _atom_site_fract_y
  _atom_site_fract_z
  _atom_site_thermal_displace_type
  _atom_site_B_iso_or_equiv
  _atom_site_type_symbol
  Sb1      1.0000 0.13052  0.01861  0.30053  Biso   1.000  Sb
  Hf1      1.0000 0.14163  0.22985  0.79031  Biso   1.000  Hf
  Hf2      1.0000 0.36113  0.27112  0.20665  Biso   1.000  Hf
  Hf3      1.0000 0.36127  0.47888  0.70710  Biso   1.000  Hf
  O1       1.0000 0.03588  0.16917  0.15342  Biso   1.000  O
  O2       1.0000 0.03317  0.08227  0.65980  Biso   1.000  O
  O3       1.0000 0.46483  0.41797  0.34145  Biso   1.000  O
  O4       1.0000 0.46596  0.33331  0.84182  Biso   1.000  O
  O5       1.0000 0.27777  0.13082  0.48314  Biso   1.000  O
  O6       1.0000 0.28198  0.12577  0.96789  Biso   1.000  O
  O7       1.0000 0.22368  0.37983  0.01775  Biso   1.000  O
  O8       1.0000 0.22378  0.37198  0.51729  Biso   1.000  O
  Hf4      1.0000 0.13906  0.52163  0.29119  Biso   1.000  Hf
  Hf5      1.0000 0.13845  0.72815  0.79180  Biso   1.000  Hf
  Hf6      1.0000 0.36267  0.77154  0.20669  Biso   1.000  Hf
  Hf7      1.0000 0.36198  0.97931  0.70783  Biso   1.000  Hf
  O9       1.0000 0.03545  0.66934  0.15965  Biso   1.000  O
  O10      1.0000 0.03531  0.58143  0.65793  Biso   1.000  O
  O11      1.0000 0.46508  0.91841  0.34179  Biso   1.000  O
  O12      1.0000 0.46737  0.83264  0.84301  Biso   1.000  O
  O13      1.0000 0.27643  0.62875  0.47938  Biso   1.000  O
  O14      1.0000 0.27630  0.62060  0.98018  Biso   1.000  O
  O15      1.0000 0.22767  0.87650  0.00884  Biso   1.000  O
  O16      1.0000 0.22501  0.86888  0.51972  Biso   1.000  O
  Hf8      1.0000 0.63828  0.02176  0.29361  Biso   1.000  Hf
  Hf9      1.0000 0.63843  0.22911  0.79245  Biso   1.000  Hf
  Hf10     1.0000 0.86057  0.27175  0.20921  Biso   1.000  Hf
  Hf11     1.0000 0.86218  0.47771  0.70817  Biso   1.000  Hf
  O17      1.0000 0.53593  0.16891  0.15944  Biso   1.000  O
  O18      1.0000 0.53767  0.08085  0.65981  Biso   1.000  O
  O19      1.0000 0.96480  0.41809  0.34182  Biso   1.000  O
  O20      1.0000 0.96517  0.33223  0.84377  Biso   1.000  O
  O21      1.0000 0.77679  0.12934  0.48201  Biso   1.000  O
  O22      1.0000 0.77588  0.12104  0.98295  Biso   1.000  O
  O23      1.0000 0.72405  0.37876  0.02008  Biso   1.000  O
  O24      1.0000 0.72393  0.37094  0.51995  Biso   1.000  O
  Hf12     1.0000 0.63833  0.52046  0.29193  Biso   1.000  Hf
  Hf13     1.0000 0.63830  0.72755  0.79128  Biso   1.000  Hf
  Hf14     1.0000 0.85952  0.76873  0.20703  Biso   1.000  Hf
  Hf15     1.0000 0.85638  0.97811  0.71538  Biso   1.000  Hf
  O25      1.0000 0.53599  0.66747  0.15780  Biso   1.000  O
  O26      1.0000 0.53507  0.58181  0.65725  Biso   1.000  O
  O27      1.0000 0.95722  0.91893  0.34515  Biso   1.000  O
  O28      1.0000 0.96434  0.83263  0.84285  Biso   1.000  O
  O29      1.0000 0.77603  0.62810  0.47993  Biso   1.000  O
  O30      1.0000 0.77677  0.62042  0.98003  Biso   1.000  O
  O31      1.0000 0.72263  0.87841  0.02168  Biso   1.000  O
  O32      1.0000 0.72335  0.87010  0.52128  Biso   1.000  O
