data_image0
_cell_length_a       10.0038
_cell_length_b       10.4606
_cell_length_c       10.0905
_cell_angle_alpha    89.2095
_cell_angle_beta     91.2136
_cell_angle_gamma    90.2433

_symmetry_space_group_name_H-M    "P 1"
_symmetry_int_tables_number       1

loop_
  _symmetry_equiv_pos_as_xyz
  'x, y, z'

loop_
  _atom_site_label
  _atom_site_occupancy
  _atom_site_fract_x
  _atom_site_fract_y
  _atom_site_fract_z
  _atom_site_thermal_displace_type
  _atom_site_B_iso_or_equiv
  _atom_site_type_symbol
  Hf1      1.0000 0.13409  0.01424  0.12154  Biso   1.000  Hf
  Hf2      1.0000 0.13128  0.23494  0.37999  Biso   1.000  Hf
  Hf3      1.0000 0.36758  0.27024  0.11755  Biso   1.000  Hf
  Hf4      1.0000 0.36613  0.48095  0.37622  Biso   1.000  Hf
  Hf5      1.0000 0.01821  0.18194  0.20511  Biso   1.000  Hf
  Hf6      1.0000 0.04251  0.05707  0.42883  Biso   1.000  Hf
  Hf7      1.0000 0.46605  0.43374  0.20399  Biso   1.000  Hf
  Hf8      1.0000 0.46132  0.31340  0.44725  Biso   1.000  Hf
  Hf9      1.0000 0.26551  0.12016  0.23905  Biso   1.000  Hf
  Hf10     1.0000 0.27335  0.13080  0.48994  Biso   1.000  Hf
  Hf11     1.0000 0.22856  0.38160  0.50224  Biso   1.000  Hf
  Hf12     1.0000 0.22599  0.36578  0.25119  Biso   1.000  Hf
  Hf13     1.0000 0.13055  0.99747  0.60812  Biso   1.000  Hf
  Hf14     1.0000 0.14080  0.19938  0.83009  Biso   1.000  Hf
  Hf15     1.0000 0.37029  0.26191  0.62228  Biso   1.000  Hf
  Hf16     1.0000 0.37855  0.48599  0.86806  Biso   1.000  Hf
  Hf17     1.0000 0.04513  0.16888  0.65406  Biso   1.000  Hf
  Hf18     1.0000 0.03741  0.05833  0.93776  Biso   1.000  Hf
  Hf19     1.0000 0.46417  0.42914  0.68771  Biso   1.000  Hf
  Hf20     1.0000 0.47437  0.31466  0.94148  Biso   1.000  Hf
  Hf21     1.0000 0.27687  0.09709  0.72881  Biso   1.000  Hf
  Hf22     1.0000 0.28798  0.13060  0.98080  Biso   1.000  Hf
  Hf23     1.0000 0.27379  0.42346  0.01784  Biso   1.000  Hf
  Hf24     1.0000 0.23349  0.35784  0.75334  Biso   1.000  Hf
  Hf25     1.0000 0.13618  0.53231  0.12966  Biso   1.000  Hf
  Hf26     1.0000 0.13677  0.73471  0.37748  Biso   1.000  Hf
  Hf27     1.0000 0.36554  0.77032  0.12776  Biso   1.000  Hf
  Hf28     1.0000 0.36667  0.98654  0.37159  Biso   1.000  Hf
  Hf29     1.0000 0.03602  0.68958  0.20005  Biso   1.000  Hf
  Hf30     1.0000 0.04161  0.57116  0.44326  Biso   1.000  Hf
  Hf31     1.0000 0.46424  0.93795  0.19652  Biso   1.000  Hf
  Hf32     1.0000 0.46689  0.81716  0.44560  Biso   1.000  Hf
  Hf33     1.0000 0.27599  0.62264  0.25570  Biso   1.000  Hf
  Hf34     1.0000 0.27196  0.63132  0.50379  Biso   1.000  Hf
  Hf35     1.0000 0.23882  0.87873  0.49348  Biso   1.000  Hf
  Hf36     1.0000 0.22896  0.86995  0.24663  Biso   1.000  Hf
  Hf37     1.0000 0.13504  0.51745  0.62446  Biso   1.000  Hf
  Hf38     1.0000 0.13097  0.73856  0.87336  Biso   1.000  Hf
  Hf39     1.0000 0.37137  0.76303  0.62687  Biso   1.000  Hf
  Hf40     1.0000 0.37421  0.97958  0.87392  Biso   1.000  Hf
  Hf41     1.0000 0.03779  0.68325  0.69515  Biso   1.000  Hf
  Hf42     1.0000 0.03492  0.56213  0.94250  Biso   1.000  Hf
  Hf43     1.0000 0.47366  0.92537  0.69763  Biso   1.000  Hf
  Hf44     1.0000 0.46807  0.81565  0.95095  Biso   1.000  Hf
  Hf45     1.0000 0.26941  0.61416  0.75341  Biso   1.000  Hf
  Hf46     1.0000 0.25887  0.65390  0.00559  Biso   1.000  Hf
  Hf47     1.0000 0.23254  0.89141  0.99686  Biso   1.000  Hf
  Hf48     1.0000 0.23589  0.85928  0.74587  Biso   1.000  Hf
  Hf49     1.0000 0.63258  0.01574  0.12876  Biso   1.000  Hf
  Hf50     1.0000 0.62980  0.23074  0.39017  Biso   1.000  Hf
  Hf51     1.0000 0.82763  0.27002  0.15844  Biso   1.000  Hf
  Hf52     1.0000 0.86806  0.48384  0.39325  Biso   1.000  Hf
  Hf53     1.0000 0.53898  0.18749  0.19479  Biso   1.000  Hf
  Hf54     1.0000 0.53467  0.06474  0.45144  Biso   1.000  Hf
  Hf55     1.0000 0.95393  0.44135  0.21910  Biso   1.000  Hf
  Hf56     1.0000 0.95974  0.31033  0.44655  Biso   1.000  Hf
  Hf57     1.0000 0.75927  0.11363  0.26567  Biso   1.000  Hf
  Hf58     1.0000 0.77426  0.12967  0.50976  Biso   1.000  Hf
  Hf59     1.0000 0.72597  0.37542  0.51179  Biso   1.000  Hf
  Hf60     1.0000 0.71258  0.37918  0.27122  Biso   1.000  Hf
  Hf61     1.0000 0.63912  0.01431  0.63066  Biso   1.000  Hf
  Hf62     1.0000 0.63937  0.23113  0.87964  Biso   1.000  Hf
  Hf63     1.0000 0.87025  0.27024  0.63677  Biso   1.000  Hf
  Hf64     1.0000 0.86327  0.48148  0.87308  Biso   1.000  Hf
  Hf65     1.0000 0.53839  0.17927  0.69688  Biso   1.000  Hf
  Hf66     1.0000 0.54508  0.06206  0.94421  Biso   1.000  Hf
  Hf67     1.0000 0.94897  0.45345  0.65966  Biso   1.000  Hf
  Hf68     1.0000 0.95880  0.30367  0.83886  Biso   1.000  Hf
  Hf69     1.0000 0.77331  0.11531  0.75808  Biso   1.000  Hf
  Hf70     1.0000 0.77432  0.13498  0.01317  Biso   1.000  Hf
  Hf71     1.0000 0.73562  0.38269  0.01040  Biso   1.000  Hf
  Hf72     1.0000 0.72179  0.37185  0.75689  Biso   1.000  Hf
  Hf73     1.0000 0.63249  0.52171  0.13588  Biso   1.000  Hf
  Hf74     1.0000 0.63374  0.73371  0.37983  Biso   1.000  Hf
  Hf75     1.0000 0.86358  0.76598  0.13224  Biso   1.000  Hf
  Hf76     1.0000 0.86582  0.98080  0.37956  Biso   1.000  Hf
  Hf77     1.0000 0.53655  0.68633  0.19803  Biso   1.000  Hf
  Hf78     1.0000 0.53480  0.56636  0.44861  Biso   1.000  Hf
  Hf79     1.0000 0.96287  0.93601  0.19439  Biso   1.000  Hf
  Hf80     1.0000 0.97201  0.81897  0.45692  Biso   1.000  Hf
  Hf81     1.0000 0.77070  0.62132  0.25968  Biso   1.000  Hf
  Hf82     1.0000 0.76841  0.63376  0.50793  Biso   1.000  Hf
  Hf83     1.0000 0.73258  0.88112  0.50478  Biso   1.000  Hf
  Hf84     1.0000 0.73091  0.86765  0.25473  Biso   1.000  Hf
  Hf85     1.0000 0.63530  0.51491  0.62841  Biso   1.000  Hf
  Hf86     1.0000 0.63540  0.73290  0.88199  Biso   1.000  Hf
  Hf87     1.0000 0.86677  0.76529  0.63218  Biso   1.000  Hf
  Hf88     1.0000 0.86326  0.97923  0.88262  Biso   1.000  Hf
  Hf89     1.0000 0.53437  0.67565  0.70507  Biso   1.000  Hf
  Hf90     1.0000 0.53694  0.56857  0.95376  Biso   1.000  Hf
  Hf91     1.0000 0.96763  0.93006  0.70323  Biso   1.000  Hf
  Hf92     1.0000 0.96374  0.81244  0.95096  Biso   1.000  Hf
  Hf93     1.0000 0.77071  0.61856  0.75734  Biso   1.000  Hf
  Hf94     1.0000 0.77053  0.63245  0.00675  Biso   1.000  Hf
  Hf95     1.0000 0.72957  0.88169  0.00591  Biso   1.000  Hf
  Hf96     1.0000 0.73331  0.86479  0.75528  Biso   1.000  Hf
  Sb1      1.0000 0.05294  0.30369  0.04156  Biso   1.000  Sb
