data_image0
_cell_length_a       4.9874
_cell_length_b       10.3261
_cell_length_c       10.0186
_cell_angle_alpha    90.0363
_cell_angle_beta     90.0102
_cell_angle_gamma    90.0483

_symmetry_space_group_name_H-M    "P 1"
_symmetry_int_tables_number       1

loop_
  _symmetry_equiv_pos_as_xyz
  'x, y, z'

loop_
  _atom_site_label
  _atom_site_occupancy
  _atom_site_fract_x
  _atom_site_fract_y
  _atom_site_fract_z
  _atom_site_thermal_displace_type
  _atom_site_B_iso_or_equiv
  _atom_site_type_symbol
  Sc1      1.0000 0.26932  0.01673  0.12360  Biso   1.000  Sc
  Hf1      1.0000 0.26801  0.23169  0.37441  Biso   1.000  Hf
  Hf2      1.0000 0.72849  0.26361  0.12656  Biso   1.000  Hf
  Hf3      1.0000 0.73109  0.48362  0.37626  Biso   1.000  Hf
  Hf4      1.0000 0.06809  0.18445  0.19639  Biso   1.000  Hf
  Hf5      1.0000 0.06904  0.06608  0.44598  Biso   1.000  Hf
  Hf6      1.0000 0.92880  0.43374  0.19515  Biso   1.000  Hf
  Hf7      1.0000 0.92838  0.31638  0.44483  Biso   1.000  Hf
  Hf8      1.0000 0.54340  0.11936  0.25031  Biso   1.000  Hf
  Hf9      1.0000 0.53942  0.13253  0.49970  Biso   1.000  Hf
  Hf10     1.0000 0.45884  0.38268  0.49945  Biso   1.000  Hf
  Hf11     1.0000 0.45797  0.36791  0.24947  Biso   1.000  Hf
  Hf12     1.0000 0.26741  0.01654  0.62589  Biso   1.000  Hf
  Hf13     1.0000 0.26878  0.23196  0.87662  Biso   1.000  Hf
  Hf14     1.0000 0.73097  0.26613  0.62543  Biso   1.000  Hf
  Hf15     1.0000 0.73107  0.48333  0.87620  Biso   1.000  Hf
  Hf16     1.0000 0.07304  0.18537  0.69333  Biso   1.000  Hf
  Hf17     1.0000 0.07019  0.06704  0.94030  Biso   1.000  Hf
  Hf18     1.0000 0.92777  0.43457  0.69470  Biso   1.000  Hf
  Hf19     1.0000 0.92980  0.31680  0.94509  Biso   1.000  Hf
  Hf20     1.0000 0.54160  0.11779  0.74891  Biso   1.000  Hf
  Hf21     1.0000 0.54411  0.13280  0.99808  Biso   1.000  Hf
  Hf22     1.0000 0.45859  0.38213  0.99965  Biso   1.000  Hf
  Hf23     1.0000 0.45916  0.36793  0.74965  Biso   1.000  Hf
  Hf24     1.0000 0.26963  0.51605  0.12599  Biso   1.000  Hf
  Hf25     1.0000 0.26957  0.73500  0.37582  Biso   1.000  Hf
  Hf26     1.0000 0.72943  0.76896  0.12632  Biso   1.000  Hf
  Hf27     1.0000 0.72961  0.98394  0.37280  Biso   1.000  Hf
  Hf28     1.0000 0.06975  0.68311  0.19534  Biso   1.000  Hf
  Hf29     1.0000 0.07133  0.56593  0.44518  Biso   1.000  Hf
  Hf30     1.0000 0.93102  0.93269  0.19613  Biso   1.000  Hf
  Hf31     1.0000 0.92981  0.81602  0.44600  Biso   1.000  Hf
  Hf32     1.0000 0.54062  0.61673  0.24949  Biso   1.000  Hf
  Hf33     1.0000 0.54093  0.63283  0.49960  Biso   1.000  Hf
  Hf34     1.0000 0.45958  0.88293  0.49985  Biso   1.000  Hf
  Hf35     1.0000 0.46271  0.86520  0.25137  Biso   1.000  Hf
  Hf36     1.0000 0.26861  0.51652  0.62617  Biso   1.000  Hf
  Hf37     1.0000 0.27132  0.73480  0.87698  Biso   1.000  Hf
  Hf38     1.0000 0.73263  0.76716  0.62614  Biso   1.000  Hf
  Hf39     1.0000 0.72885  0.98396  0.87750  Biso   1.000  Hf
  Hf40     1.0000 0.07264  0.68437  0.69484  Biso   1.000  Hf
  Hf41     1.0000 0.07209  0.56626  0.94480  Biso   1.000  Hf
  Hf42     1.0000 0.92726  0.93442  0.69479  Biso   1.000  Hf
  Hf43     1.0000 0.92945  0.81599  0.94427  Biso   1.000  Hf
  Hf44     1.0000 0.54189  0.61811  0.74982  Biso   1.000  Hf
  Hf45     1.0000 0.54225  0.63138  0.99987  Biso   1.000  Hf
  Hf46     1.0000 0.46046  0.88062  0.99949  Biso   1.000  Hf
  Hf47     1.0000 0.45790  0.86798  0.74916  Biso   1.000  Hf
