data_image0
_cell_length_a       10.0375
_cell_length_b       10.216
_cell_length_c       10.4526
_cell_angle_alpha    89.9744
_cell_angle_beta     90.0042
_cell_angle_gamma    90.0055

_symmetry_space_group_name_H-M    "P 1"
_symmetry_int_tables_number       1

loop_
  _symmetry_equiv_pos_as_xyz
  'x, y, z'

loop_
  _atom_site_label
  _atom_site_occupancy
  _atom_site_fract_x
  _atom_site_fract_y
  _atom_site_fract_z
  _atom_site_thermal_displace_type
  _atom_site_B_iso_or_equiv
  _atom_site_type_symbol
  Sc1      1.0000 0.13781  0.01991  0.17319  Biso   1.000  Sc
  Hf1      1.0000 0.13911  0.22757  0.42031  Biso   1.000  Hf
  Hf2      1.0000 0.35871  0.26813  0.17199  Biso   1.000  Hf
  Hf3      1.0000 0.36080  0.47861  0.42168  Biso   1.000  Hf
  Hf4      1.0000 0.63935  0.02103  0.07818  Biso   1.000  Hf
  Hf5      1.0000 0.63898  0.22916  0.32789  Biso   1.000  Hf
  Hf6      1.0000 0.86294  0.26990  0.07815  Biso   1.000  Hf
  Hf7      1.0000 0.86095  0.47941  0.32807  Biso   1.000  Hf
  O1       1.0000 0.03249  0.16523  0.08296  Biso   1.000  O
  O2       1.0000 0.03125  0.08663  0.33497  Biso   1.000  O
  O3       1.0000 0.46737  0.41318  0.08324  Biso   1.000  O
  O4       1.0000 0.46784  0.33590  0.33334  Biso   1.000  O
  O5       1.0000 0.27806  0.12512  0.29767  Biso   1.000  O
  O6       1.0000 0.27896  0.12767  0.04389  Biso   1.000  O
  O7       1.0000 0.22331  0.37397  0.29558  Biso   1.000  O
  O8       1.0000 0.22304  0.37640  0.04596  Biso   1.000  O
  O9       1.0000 0.53252  0.16445  0.16675  Biso   1.000  O
  O10      1.0000 0.53225  0.08553  0.41640  Biso   1.000  O
  O11      1.0000 0.96732  0.41541  0.16661  Biso   1.000  O
  O12      1.0000 0.96751  0.33611  0.41661  Biso   1.000  O
  O13      1.0000 0.77556  0.12480  0.45452  Biso   1.000  O
  O14      1.0000 0.77581  0.12626  0.20437  Biso   1.000  O
  O15      1.0000 0.72368  0.37454  0.45449  Biso   1.000  O
  O16      1.0000 0.72405  0.37629  0.20477  Biso   1.000  O
  Hf8      1.0000 0.13903  0.02120  0.67172  Biso   1.000  Hf
  Hf9      1.0000 0.13897  0.22716  0.92419  Biso   1.000  Hf
  Hf10     1.0000 0.36023  0.27080  0.67212  Biso   1.000  Hf
  Hf11     1.0000 0.36039  0.47840  0.92250  Biso   1.000  Hf
  Hf12     1.0000 0.63884  0.02087  0.57726  Biso   1.000  Hf
  Hf13     1.0000 0.63908  0.22887  0.82822  Biso   1.000  Hf
  Hf14     1.0000 0.86104  0.27099  0.57774  Biso   1.000  Hf
  Hf15     1.0000 0.86105  0.47914  0.82855  Biso   1.000  Hf
  O17      1.0000 0.03244  0.16515  0.58374  Biso   1.000  O
  O18      1.0000 0.03201  0.08527  0.83286  Biso   1.000  O
  O19      1.0000 0.46777  0.41430  0.58341  Biso   1.000  O
  O20      1.0000 0.46781  0.33555  0.83307  Biso   1.000  O
  O21      1.0000 0.27570  0.12363  0.79516  Biso   1.000  O
  O22      1.0000 0.27588  0.12591  0.54602  Biso   1.000  O
  O23      1.0000 0.22406  0.37388  0.79590  Biso   1.000  O
  O24      1.0000 0.22400  0.37621  0.54567  Biso   1.000  O
  O25      1.0000 0.53216  0.16444  0.66656  Biso   1.000  O
  O26      1.0000 0.53284  0.08531  0.91658  Biso   1.000  O
  O27      1.0000 0.96739  0.41503  0.66648  Biso   1.000  O
  O28      1.0000 0.96775  0.33573  0.91631  Biso   1.000  O
  O29      1.0000 0.77649  0.12381  0.95413  Biso   1.000  O
  O30      1.0000 0.77595  0.12598  0.70431  Biso   1.000  O
  O31      1.0000 0.72370  0.37363  0.95436  Biso   1.000  O
  O32      1.0000 0.72392  0.37606  0.70436  Biso   1.000  O
  Hf16     1.0000 0.13941  0.52090  0.17195  Biso   1.000  Hf
  Hf17     1.0000 0.13995  0.72970  0.42120  Biso   1.000  Hf
  Hf18     1.0000 0.35936  0.77243  0.17177  Biso   1.000  Hf
  Hf19     1.0000 0.35919  0.97969  0.42008  Biso   1.000  Hf
  Hf20     1.0000 0.63854  0.52044  0.07839  Biso   1.000  Hf
  Hf21     1.0000 0.63885  0.72980  0.32757  Biso   1.000  Hf
  Hf22     1.0000 0.86155  0.77194  0.07871  Biso   1.000  Hf
  Hf23     1.0000 0.86362  0.97938  0.32654  Biso   1.000  Hf
  O33      1.0000 0.03249  0.66437  0.08331  Biso   1.000  O
  O34      1.0000 0.03249  0.58591  0.33338  Biso   1.000  O
  O35      1.0000 0.46902  0.91413  0.08327  Biso   1.000  O
  O36      1.0000 0.46855  0.83684  0.33261  Biso   1.000  O
  O37      1.0000 0.27665  0.62314  0.29546  Biso   1.000  O
  O38      1.0000 0.27616  0.62488  0.04602  Biso   1.000  O
  O39      1.0000 0.22493  0.87231  0.29630  Biso   1.000  O
  O40      1.0000 0.22690  0.87361  0.04377  Biso   1.000  O
  O41      1.0000 0.53172  0.66389  0.16699  Biso   1.000  O
  O42      1.0000 0.53211  0.58608  0.41717  Biso   1.000  O
  O43      1.0000 0.96598  0.91374  0.16699  Biso   1.000  O
  O44      1.0000 0.96791  0.83503  0.41705  Biso   1.000  O
  O45      1.0000 0.77604  0.62412  0.45449  Biso   1.000  O
  O46      1.0000 0.77606  0.62637  0.20445  Biso   1.000  O
  O47      1.0000 0.72446  0.87418  0.45429  Biso   1.000  O
  O48      1.0000 0.72225  0.87601  0.20404  Biso   1.000  O
  Hf24     1.0000 0.13913  0.52099  0.67218  Biso   1.000  Hf
  Hf25     1.0000 0.14004  0.72997  0.92260  Biso   1.000  Hf
  Hf26     1.0000 0.36095  0.77158  0.67187  Biso   1.000  Hf
  Hf27     1.0000 0.35952  0.97946  0.92352  Biso   1.000  Hf
  Hf28     1.0000 0.63903  0.52104  0.57812  Biso   1.000  Hf
  Hf29     1.0000 0.63879  0.72915  0.82844  Biso   1.000  Hf
  Hf30     1.0000 0.86109  0.77101  0.57792  Biso   1.000  Hf
  Hf31     1.0000 0.86087  0.97894  0.82806  Biso   1.000  Hf
  O49      1.0000 0.03267  0.66477  0.58368  Biso   1.000  O
  O50      1.0000 0.03259  0.58526  0.83363  Biso   1.000  O
  O51      1.0000 0.46754  0.91429  0.58260  Biso   1.000  O
  O52      1.0000 0.46763  0.83588  0.83315  Biso   1.000  O
  O53      1.0000 0.27628  0.62417  0.79584  Biso   1.000  O
  O54      1.0000 0.27645  0.62638  0.54557  Biso   1.000  O
  O55      1.0000 0.22366  0.87411  0.79481  Biso   1.000  O
  O56      1.0000 0.22350  0.87644  0.54561  Biso   1.000  O
  O57      1.0000 0.53220  0.66434  0.66704  Biso   1.000  O
  O58      1.0000 0.53177  0.58546  0.91694  Biso   1.000  O
  O59      1.0000 0.96724  0.91483  0.66634  Biso   1.000  O
  O60      1.0000 0.96754  0.83500  0.91603  Biso   1.000  O
  O61      1.0000 0.77552  0.62355  0.95439  Biso   1.000  O
  O62      1.0000 0.77594  0.62614  0.70446  Biso   1.000  O
  O63      1.0000 0.72405  0.87395  0.95419  Biso   1.000  O
  O64      1.0000 0.72366  0.87590  0.70436  Biso   1.000  O
