data_image0
_cell_length_a       10.0114
_cell_length_b       10.4146
_cell_length_c       5.06846
_cell_angle_alpha    90.0382
_cell_angle_beta     89.4147
_cell_angle_gamma    91.4011

_symmetry_space_group_name_H-M    "P 1"
_symmetry_int_tables_number       1

loop_
  _symmetry_equiv_pos_as_xyz
  'x, y, z'

loop_
  _atom_site_label
  _atom_site_occupancy
  _atom_site_fract_x
  _atom_site_fract_y
  _atom_site_fract_z
  _atom_site_thermal_displace_type
  _atom_site_B_iso_or_equiv
  _atom_site_type_symbol
  Hf1      1.0000 0.14974  0.01117  0.25814  Biso   1.000  Hf
  Hf2      1.0000 0.13933  0.22230  0.81430  Biso   1.000  Hf
  Hf3      1.0000 0.37325  0.25957  0.23922  Biso   1.000  Hf
  Hf4      1.0000 0.37246  0.48722  0.74378  Biso   1.000  Hf
  Hf5      1.0000 0.01865  0.16715  0.48114  Biso   1.000  Hf
  Hf6      1.0000 0.03639  0.06277  0.93676  Biso   1.000  Hf
  Hf7      1.0000 0.45776  0.43099  0.38667  Biso   1.000  Hf
  Hf8      1.0000 0.46550  0.31396  0.87600  Biso   1.000  Hf
  Hf9      1.0000 0.27207  0.11598  0.52236  Biso   1.000  Hf
  Hf10     1.0000 0.29894  0.11182  0.99813  Biso   1.000  Hf
  Hf11     1.0000 0.24012  0.38791  0.99668  Biso   1.000  Hf
  Hf12     1.0000 0.20647  0.35720  0.49373  Biso   1.000  Hf
  Hf13     1.0000 0.12440  0.52546  0.23296  Biso   1.000  Hf
  Hf14     1.0000 0.13305  0.73495  0.74593  Biso   1.000  Hf
  Hf15     1.0000 0.36889  0.76122  0.24629  Biso   1.000  Hf
  Hf16     1.0000 0.37528  0.97582  0.74757  Biso   1.000  Hf
  Hf17     1.0000 0.03692  0.68905  0.38144  Biso   1.000  Hf
  Hf18     1.0000 0.03192  0.57043  0.88370  Biso   1.000  Hf
  Hf19     1.0000 0.46950  0.92986  0.38076  Biso   1.000  Hf
  Hf20     1.0000 0.47045  0.81359  0.89421  Biso   1.000  Hf
  Hf21     1.0000 0.26596  0.61052  0.49118  Biso   1.000  Hf
  Hf22     1.0000 0.26873  0.63458  0.98762  Biso   1.000  Hf
  Hf23     1.0000 0.23216  0.87707  0.99910  Biso   1.000  Hf
  Hf24     1.0000 0.23893  0.86205  0.49833  Biso   1.000  Hf
  Hf25     1.0000 0.63819  0.01629  0.24072  Biso   1.000  Hf
  Hf26     1.0000 0.63541  0.23095  0.74211  Biso   1.000  Hf
  Hf27     1.0000 0.85647  0.27765  0.23300  Biso   1.000  Hf
  Hf28     1.0000 0.86120  0.48572  0.74409  Biso   1.000  Hf
  Hf29     1.0000 0.53724  0.17991  0.38023  Biso   1.000  Hf
  Hf30     1.0000 0.54649  0.06111  0.87585  Biso   1.000  Hf
  Hf31     1.0000 0.94439  0.45423  0.37905  Biso   1.000  Hf
  Hf32     1.0000 0.95288  0.32132  0.85085  Biso   1.000  Hf
  Hf33     1.0000 0.76837  0.11927  0.48727  Biso   1.000  Hf
  Hf34     1.0000 0.77405  0.13642  0.98735  Biso   1.000  Hf
  Hf35     1.0000 0.72316  0.38372  0.99735  Biso   1.000  Hf
  Hf36     1.0000 0.71960  0.37324  0.49380  Biso   1.000  Hf
  Hf37     1.0000 0.63269  0.51920  0.25422  Biso   1.000  Hf
  Hf38     1.0000 0.63970  0.73679  0.74960  Biso   1.000  Hf
  Hf39     1.0000 0.86897  0.77095  0.24536  Biso   1.000  Hf
  Hf40     1.0000 0.87271  0.99046  0.73754  Biso   1.000  Hf
  Hf41     1.0000 0.53132  0.67945  0.40297  Biso   1.000  Hf
  Hf42     1.0000 0.53337  0.56803  0.89810  Biso   1.000  Hf
  Hf43     1.0000 0.97423  0.93055  0.39907  Biso   1.000  Hf
  Hf44     1.0000 0.96615  0.81896  0.88403  Biso   1.000  Hf
  Hf45     1.0000 0.76639  0.62420  0.49944  Biso   1.000  Hf
  Hf46     1.0000 0.76683  0.63514  0.00079  Biso   1.000  Hf
  Hf47     1.0000 0.73771  0.88631  0.99173  Biso   1.000  Hf
  Hf48     1.0000 0.73339  0.87060  0.49225  Biso   1.000  Hf
  Si1      1.0000 0.10748  0.26803  0.29068  Biso   1.000  Si
