data_image0
_cell_length_a       4.95268
_cell_length_b       10.3766
_cell_length_c       9.94797
_cell_angle_alpha    91.4008
_cell_angle_beta     88.807
_cell_angle_gamma    90.4796

_symmetry_space_group_name_H-M    "P 1"
_symmetry_int_tables_number       1

loop_
  _symmetry_equiv_pos_as_xyz
  'x, y, z'

loop_
  _atom_site_label
  _atom_site_occupancy
  _atom_site_fract_x
  _atom_site_fract_y
  _atom_site_fract_z
  _atom_site_thermal_displace_type
  _atom_site_B_iso_or_equiv
  _atom_site_type_symbol
  Si1      1.0000 0.23361  0.03504  0.10876  Biso   1.000  Si
  Hf1      1.0000 0.27172  0.22405  0.37047  Biso   1.000  Hf
  Hf2      1.0000 0.73887  0.26096  0.11585  Biso   1.000  Hf
  Hf3      1.0000 0.74088  0.47863  0.37490  Biso   1.000  Hf
  Hf4      1.0000 0.06231  0.17299  0.19112  Biso   1.000  Hf
  Hf5      1.0000 0.07120  0.06523  0.44947  Biso   1.000  Hf
  Hf6      1.0000 0.93980  0.42496  0.19375  Biso   1.000  Hf
  Hf7      1.0000 0.93625  0.31232  0.44152  Biso   1.000  Hf
  Hf8      1.0000 0.48977  0.08447  0.23343  Biso   1.000  Hf
  Hf9      1.0000 0.55002  0.13167  0.48956  Biso   1.000  Hf
  Hf10     1.0000 0.46226  0.38016  0.49677  Biso   1.000  Hf
  Hf11     1.0000 0.47043  0.35200  0.24448  Biso   1.000  Hf
  Hf12     1.0000 0.26221  0.01527  0.62285  Biso   1.000  Hf
  Hf13     1.0000 0.26094  0.24051  0.87037  Biso   1.000  Hf
  Hf14     1.0000 0.73300  0.26574  0.62082  Biso   1.000  Hf
  Hf15     1.0000 0.72693  0.49160  0.87236  Biso   1.000  Hf
  Hf16     1.0000 0.06722  0.18557  0.69526  Biso   1.000  Hf
  Hf17     1.0000 0.04244  0.07430  0.96449  Biso   1.000  Hf
  Hf18     1.0000 0.92718  0.43566  0.69261  Biso   1.000  Hf
  Hf19     1.0000 0.91739  0.32046  0.93852  Biso   1.000  Hf
  Hf20     1.0000 0.53551  0.11919  0.74781  Biso   1.000  Hf
  Hf21     1.0000 0.49675  0.13896  0.00066  Biso   1.000  Hf
  Hf22     1.0000 0.45629  0.38858  0.99438  Biso   1.000  Hf
  Hf23     1.0000 0.45602  0.37032  0.74602  Biso   1.000  Hf
  Hf24     1.0000 0.27209  0.51478  0.12743  Biso   1.000  Hf
  Hf25     1.0000 0.28595  0.73209  0.37949  Biso   1.000  Hf
  Hf26     1.0000 0.76328  0.76101  0.12334  Biso   1.000  Hf
  Hf27     1.0000 0.74307  0.98116  0.36493  Biso   1.000  Hf
  Hf28     1.0000 0.08218  0.68208  0.20259  Biso   1.000  Hf
  Hf29     1.0000 0.08002  0.56345  0.44503  Biso   1.000  Hf
  Hf30     1.0000 0.99690  0.93708  0.18778  Biso   1.000  Hf
  Hf31     1.0000 0.95169  0.82040  0.45343  Biso   1.000  Hf
  Hf32     1.0000 0.54958  0.60085  0.24868  Biso   1.000  Hf
  Hf33     1.0000 0.55224  0.63263  0.50152  Biso   1.000  Hf
  Hf34     1.0000 0.47537  0.88446  0.50357  Biso   1.000  Hf
  Hf35     1.0000 0.53318  0.84027  0.26264  Biso   1.000  Hf
  Hf36     1.0000 0.27140  0.51809  0.62386  Biso   1.000  Hf
  Hf37     1.0000 0.25897  0.74125  0.88094  Biso   1.000  Hf
  Hf38     1.0000 0.73945  0.77137  0.62864  Biso   1.000  Hf
  Hf39     1.0000 0.70835  0.98997  0.88314  Biso   1.000  Hf
  Hf40     1.0000 0.06924  0.68480  0.70024  Biso   1.000  Hf
  Hf41     1.0000 0.05470  0.57503  0.95452  Biso   1.000  Hf
  Hf42     1.0000 0.92844  0.93825  0.70422  Biso   1.000  Hf
  Hf43     1.0000 0.90216  0.82254  0.93886  Biso   1.000  Hf
  Hf44     1.0000 0.53444  0.62180  0.75222  Biso   1.000  Hf
  Hf45     1.0000 0.52786  0.64191  0.00132  Biso   1.000  Hf
  Hf46     1.0000 0.41951  0.90657  0.01915  Biso   1.000  Hf
  Hf47     1.0000 0.45356  0.87058  0.75699  Biso   1.000  Hf
