data_image0
_cell_length_a       10.0475
_cell_length_b       4.99353
_cell_length_c       10.0477
_cell_angle_alpha    89.9999
_cell_angle_beta     90
_cell_angle_gamma    89.9997

_symmetry_space_group_name_H-M    "P 1"
_symmetry_int_tables_number       1

loop_
  _symmetry_equiv_pos_as_xyz
  'x, y, z'

loop_
  _atom_site_label
  _atom_site_occupancy
  _atom_site_fract_x
  _atom_site_fract_y
  _atom_site_fract_z
  _atom_site_thermal_displace_type
  _atom_site_B_iso_or_equiv
  _atom_site_type_symbol
  Si1      1.0000 0.12490  0.00011  0.12491  Biso   1.000  Si
  Hf1      1.0000 0.12491  0.50011  0.37580  Biso   1.000  Hf
  Hf2      1.0000 0.37579  0.50011  0.12491  Biso   1.000  Hf
  Hf3      1.0000 0.37222  0.01259  0.37222  Biso   1.000  Hf
  Hf4      1.0000 0.97246  0.31729  0.97246  Biso   1.000  Hf
  Hf5      1.0000 0.02897  0.19200  0.22084  Biso   1.000  Hf
  Hf6      1.0000 0.97247  0.68293  0.27736  Biso   1.000  Hf
  Hf7      1.0000 0.02897  0.80821  0.02898  Biso   1.000  Hf
  Hf8      1.0000 0.27735  0.31728  0.27736  Biso   1.000  Hf
  Hf9      1.0000 0.22085  0.19199  0.02899  Biso   1.000  Hf
  Hf10     1.0000 0.27735  0.68293  0.97246  Biso   1.000  Hf
  Hf11     1.0000 0.22085  0.80823  0.22083  Biso   1.000  Hf
  Hf12     1.0000 0.12491  0.00011  0.62491  Biso   1.000  Hf
  Hf13     1.0000 0.12491  0.50010  0.87402  Biso   1.000  Hf
  Hf14     1.0000 0.37632  0.50011  0.62491  Biso   1.000  Hf
  Hf15     1.0000 0.37222  0.98762  0.87759  Biso   1.000  Hf
  Hf16     1.0000 0.98853  0.25715  0.47741  Biso   1.000  Hf
  Hf17     1.0000 0.01079  0.25096  0.73060  Biso   1.000  Hf
  Hf18     1.0000 0.98853  0.74307  0.77241  Biso   1.000  Hf
  Hf19     1.0000 0.01079  0.74925  0.51922  Biso   1.000  Hf
  Hf20     1.0000 0.26129  0.25714  0.77241  Biso   1.000  Hf
  Hf21     1.0000 0.23903  0.25096  0.51922  Biso   1.000  Hf
  Hf22     1.0000 0.26129  0.74307  0.47741  Biso   1.000  Hf
  Hf23     1.0000 0.23903  0.74926  0.73060  Biso   1.000  Hf
  Hf24     1.0000 0.62491  0.00011  0.12491  Biso   1.000  Hf
  Hf25     1.0000 0.62491  0.50011  0.37631  Biso   1.000  Hf
  Hf26     1.0000 0.87403  0.50011  0.12491  Biso   1.000  Hf
  Hf27     1.0000 0.87759  0.98762  0.37222  Biso   1.000  Hf
  Hf28     1.0000 0.47742  0.25717  0.98850  Biso   1.000  Hf
  Hf29     1.0000 0.51920  0.25094  0.23901  Biso   1.000  Hf
  Hf30     1.0000 0.47742  0.74305  0.26132  Biso   1.000  Hf
  Hf31     1.0000 0.51920  0.74927  0.01081  Biso   1.000  Hf
  Hf32     1.0000 0.77240  0.25717  0.26132  Biso   1.000  Hf
  Hf33     1.0000 0.73062  0.25095  0.01081  Biso   1.000  Hf
  Hf34     1.0000 0.77240  0.74304  0.98850  Biso   1.000  Hf
  Hf35     1.0000 0.73062  0.74927  0.23901  Biso   1.000  Hf
  Hf36     1.0000 0.62491  0.00011  0.62491  Biso   1.000  Hf
  Hf37     1.0000 0.62491  0.50011  0.87350  Biso   1.000  Hf
  Hf38     1.0000 0.87349  0.50011  0.62491  Biso   1.000  Hf
  Hf39     1.0000 0.87759  0.01259  0.87759  Biso   1.000  Hf
  Hf40     1.0000 0.48786  0.25324  0.48784  Biso   1.000  Hf
  Hf41     1.0000 0.51206  0.25423  0.73774  Biso   1.000  Hf
  Hf42     1.0000 0.48786  0.74698  0.76198  Biso   1.000  Hf
  Hf43     1.0000 0.51206  0.74598  0.51208  Biso   1.000  Hf
  Hf44     1.0000 0.76196  0.25324  0.76198  Biso   1.000  Hf
  Hf45     1.0000 0.73776  0.25424  0.51208  Biso   1.000  Hf
  Hf46     1.0000 0.76196  0.74697  0.48783  Biso   1.000  Hf
  Hf47     1.0000 0.73776  0.74598  0.73774  Biso   1.000  Hf
