data_image0
_cell_length_a       9.99899
_cell_length_b       5.21647
_cell_length_c       10.0958
_cell_angle_alpha    90.0969
_cell_angle_beta     89.2512
_cell_angle_gamma    91.0899

_symmetry_space_group_name_H-M    "P 1"
_symmetry_int_tables_number       1

loop_
  _symmetry_equiv_pos_as_xyz
  'x, y, z'

loop_
  _atom_site_label
  _atom_site_occupancy
  _atom_site_fract_x
  _atom_site_fract_y
  _atom_site_fract_z
  _atom_site_thermal_displace_type
  _atom_site_B_iso_or_equiv
  _atom_site_type_symbol
  Hf1      1.0000 0.13621  0.08143  0.11892  Biso   1.000  Hf
  Hf2      1.0000 0.13565  0.45323  0.40183  Biso   1.000  Hf
  Hf3      1.0000 0.37132  0.51361  0.11950  Biso   1.000  Hf
  Hf4      1.0000 0.37320  0.96362  0.37709  Biso   1.000  Hf
  Hf5      1.0000 0.01882  0.36872  0.23236  Biso   1.000  Hf
  Hf6      1.0000 0.03861  0.12411  0.45549  Biso   1.000  Hf
  Hf7      1.0000 0.45823  0.85821  0.19538  Biso   1.000  Hf
  Hf8      1.0000 0.46627  0.62666  0.44443  Biso   1.000  Hf
  Hf9      1.0000 0.27058  0.22925  0.25986  Biso   1.000  Hf
  Hf10     1.0000 0.27770  0.25391  0.50747  Biso   1.000  Hf
  Hf11     1.0000 0.23538  0.76039  0.50179  Biso   1.000  Hf
  Hf12     1.0000 0.20842  0.71546  0.24538  Biso   1.000  Hf
  Hf13     1.0000 0.13884  0.02438  0.63063  Biso   1.000  Hf
  Hf14     1.0000 0.12954  0.46118  0.87293  Biso   1.000  Hf
  Hf15     1.0000 0.37142  0.52850  0.62925  Biso   1.000  Hf
  Hf16     1.0000 0.37335  0.96008  0.87296  Biso   1.000  Hf
  Hf17     1.0000 0.04177  0.37118  0.68645  Biso   1.000  Hf
  Hf18     1.0000 0.03682  0.12281  0.94055  Biso   1.000  Hf
  Hf19     1.0000 0.46566  0.86835  0.68959  Biso   1.000  Hf
  Hf20     1.0000 0.46869  0.62712  0.94148  Biso   1.000  Hf
  Hf21     1.0000 0.26929  0.23191  0.75285  Biso   1.000  Hf
  Hf22     1.0000 0.29232  0.23964  0.99075  Biso   1.000  Hf
  Hf23     1.0000 0.23383  0.76469  0.00432  Biso   1.000  Hf
  Hf24     1.0000 0.23231  0.73052  0.75251  Biso   1.000  Hf
  Hf25     1.0000 0.63316  0.03217  0.12748  Biso   1.000  Hf
  Hf26     1.0000 0.63809  0.46877  0.37526  Biso   1.000  Hf
  Hf27     1.0000 0.85761  0.54403  0.11504  Biso   1.000  Hf
  Hf28     1.0000 0.86965  0.97573  0.37390  Biso   1.000  Hf
  Hf29     1.0000 0.53502  0.35783  0.19622  Biso   1.000  Hf
  Hf30     1.0000 0.53780  0.12972  0.44423  Biso   1.000  Hf
  Hf31     1.0000 0.95790  0.89406  0.19440  Biso   1.000  Hf
  Hf32     1.0000 0.96869  0.64139  0.45206  Biso   1.000  Hf
  Hf33     1.0000 0.76607  0.23947  0.24953  Biso   1.000  Hf
  Hf34     1.0000 0.77215  0.27257  0.49865  Biso   1.000  Hf
  Hf35     1.0000 0.73262  0.76810  0.49732  Biso   1.000  Hf
  Hf36     1.0000 0.72723  0.74123  0.24819  Biso   1.000  Hf
  Hf37     1.0000 0.63813  0.03316  0.62288  Biso   1.000  Hf
  Hf38     1.0000 0.63792  0.46161  0.87403  Biso   1.000  Hf
  Hf39     1.0000 0.86937  0.54034  0.62833  Biso   1.000  Hf
  Hf40     1.0000 0.86227  0.96664  0.87002  Biso   1.000  Hf
  Hf41     1.0000 0.53733  0.36341  0.69541  Biso   1.000  Hf
  Hf42     1.0000 0.54343  0.12473  0.94260  Biso   1.000  Hf
  Hf43     1.0000 0.96240  0.87886  0.69165  Biso   1.000  Hf
  Hf44     1.0000 0.94152  0.61550  0.90708  Biso   1.000  Hf
  Hf45     1.0000 0.77133  0.23768  0.74717  Biso   1.000  Hf
  Hf46     1.0000 0.77068  0.25899  0.99969  Biso   1.000  Hf
  Hf47     1.0000 0.72661  0.76317  0.99945  Biso   1.000  Hf
  Hf48     1.0000 0.72430  0.74154  0.74588  Biso   1.000  Hf
  Si1      1.0000 0.10977  0.57263  0.12647  Biso   1.000  Si
