data_image0
_cell_length_a       10.0251
_cell_length_b       10.2744
_cell_length_c       10.5028
_cell_angle_alpha    89.6696
_cell_angle_beta     90.1205
_cell_angle_gamma    90.0739

_symmetry_space_group_name_H-M    "P 1"
_symmetry_int_tables_number       1

loop_
  _symmetry_equiv_pos_as_xyz
  'x, y, z'

loop_
  _atom_site_label
  _atom_site_occupancy
  _atom_site_fract_x
  _atom_site_fract_y
  _atom_site_fract_z
  _atom_site_thermal_displace_type
  _atom_site_B_iso_or_equiv
  _atom_site_type_symbol
  Hf1      1.0000 0.13743  0.02006  0.17172  Biso   1.000  Hf
  Hf2      1.0000 0.13428  0.22715  0.42547  Biso   1.000  Hf
  Hf3      1.0000 0.34372  0.26821  0.18112  Biso   1.000  Hf
  Hf4      1.0000 0.36165  0.47986  0.42256  Biso   1.000  Hf
  Hf5      1.0000 0.64810  0.02223  0.06954  Biso   1.000  Hf
  Hf6      1.0000 0.63998  0.23038  0.33271  Biso   1.000  Hf
  Hf7      1.0000 0.85493  0.26957  0.08040  Biso   1.000  Hf
  Hf8      1.0000 0.86327  0.47985  0.33251  Biso   1.000  Hf
  O1       1.0000 0.03430  0.16509  0.08586  Biso   1.000  O
  O2       1.0000 0.03265  0.08303  0.33593  Biso   1.000  O
  O3       1.0000 0.48777  0.40029  0.08255  Biso   1.000  O
  O4       1.0000 0.46349  0.33575  0.33151  Biso   1.000  O
  O5       1.0000 0.27196  0.12379  0.29767  Biso   1.000  O
  O6       1.0000 0.27657  0.12496  0.04488  Biso   1.000  O
  O7       1.0000 0.21735  0.37464  0.29904  Biso   1.000  O
  O8       1.0000 0.23099  0.37878  0.04782  Biso   1.000  O
  O9       1.0000 0.51864  0.16441  0.17089  Biso   1.000  O
  O10      1.0000 0.53186  0.08598  0.41683  Biso   1.000  O
  O11      1.0000 0.96464  0.41666  0.16956  Biso   1.000  O
  O12      1.0000 0.96560  0.33502  0.42075  Biso   1.000  O
  O13      1.0000 0.77533  0.12427  0.45721  Biso   1.000  O
  O14      1.0000 0.77780  0.12550  0.21390  Biso   1.000  O
  O15      1.0000 0.72240  0.37215  0.45845  Biso   1.000  O
  O16      1.0000 0.71997  0.39110  0.21478  Biso   1.000  O
  Hf9      1.0000 0.14085  0.02007  0.67243  Biso   1.000  Hf
  Hf10     1.0000 0.13618  0.22689  0.92287  Biso   1.000  Hf
  Hf11     1.0000 0.35859  0.27215  0.67110  Biso   1.000  Hf
  Hf12     1.0000 0.36137  0.48125  0.91884  Biso   1.000  Hf
  Hf13     1.0000 0.63842  0.02081  0.57982  Biso   1.000  Hf
  Hf14     1.0000 0.63351  0.22491  0.82169  Biso   1.000  Hf
  Hf15     1.0000 0.85994  0.27003  0.58205  Biso   1.000  Hf
  Hf16     1.0000 0.86288  0.47846  0.82965  Biso   1.000  Hf
  O17      1.0000 0.03228  0.16478  0.58627  Biso   1.000  O
  O18      1.0000 0.03659  0.08357  0.83236  Biso   1.000  O
  O19      1.0000 0.46736  0.41440  0.58056  Biso   1.000  O
  O20      1.0000 0.46655  0.34269  0.82555  Biso   1.000  O
  O21      1.0000 0.27875  0.12391  0.79560  Biso   1.000  O
  O22      1.0000 0.27490  0.12486  0.54505  Biso   1.000  O
  O23      1.0000 0.22122  0.37295  0.79749  Biso   1.000  O
  O24      1.0000 0.22293  0.37589  0.54667  Biso   1.000  O
  O25      1.0000 0.52898  0.16534  0.66139  Biso   1.000  O
  O26      1.0000 0.54346  0.05683  0.89347  Biso   1.000  O
  O27      1.0000 0.96740  0.41420  0.66891  Biso   1.000  O
  O28      1.0000 0.96554  0.33392  0.91876  Biso   1.000  O
  O29      1.0000 0.79372  0.11656  0.94951  Biso   1.000  O
  O30      1.0000 0.77723  0.12198  0.70172  Biso   1.000  O
  O31      1.0000 0.72053  0.38368  0.95687  Biso   1.000  O
  O32      1.0000 0.72508  0.37529  0.70636  Biso   1.000  O
  Hf17     1.0000 0.13626  0.52276  0.17266  Biso   1.000  Hf
  Hf18     1.0000 0.13940  0.72926  0.42232  Biso   1.000  Hf
  Hf19     1.0000 0.36238  0.77451  0.17203  Biso   1.000  Hf
  Hf20     1.0000 0.36160  0.97791  0.42356  Biso   1.000  Hf
  Hf21     1.0000 0.65014  0.53729  0.08249  Biso   1.000  Hf
  Hf22     1.0000 0.63997  0.73165  0.33058  Biso   1.000  Hf
  Hf23     1.0000 0.86556  0.77563  0.07930  Biso   1.000  Hf
  Hf24     1.0000 0.85956  0.97934  0.33099  Biso   1.000  Hf
  O33      1.0000 0.03522  0.66656  0.08356  Biso   1.000  O
  O34      1.0000 0.03422  0.58621  0.33389  Biso   1.000  O
  O35      1.0000 0.46969  0.91940  0.08433  Biso   1.000  O
  O36      1.0000 0.46813  0.83620  0.33402  Biso   1.000  O
  O37      1.0000 0.27684  0.62446  0.29469  Biso   1.000  O
  O38      1.0000 0.27992  0.62521  0.04578  Biso   1.000  O
  O39      1.0000 0.22528  0.87433  0.29622  Biso   1.000  O
  O40      1.0000 0.22461  0.87467  0.04669  Biso   1.000  O
  O41      1.0000 0.53359  0.66651  0.16944  Biso   1.000  O
  O42      1.0000 0.53307  0.58667  0.41769  Biso   1.000  O
  O43      1.0000 0.96776  0.91623  0.16924  Biso   1.000  O
  O44      1.0000 0.96693  0.83278  0.41722  Biso   1.000  O
  O45      1.0000 0.77605  0.62367  0.45658  Biso   1.000  O
  O46      1.0000 0.78234  0.63462  0.20742  Biso   1.000  O
  O47      1.0000 0.72340  0.87431  0.45631  Biso   1.000  O
  O48      1.0000 0.72472  0.87873  0.20412  Biso   1.000  O
  Hf25     1.0000 0.13795  0.51991  0.67235  Biso   1.000  Hf
  Hf26     1.0000 0.14111  0.72878  0.92226  Biso   1.000  Hf
  Hf27     1.0000 0.36173  0.76892  0.67186  Biso   1.000  Hf
  Hf28     1.0000 0.36465  0.97713  0.91996  Biso   1.000  Hf
  Hf29     1.0000 0.63891  0.52028  0.57948  Biso   1.000  Hf
  Hf30     1.0000 0.63878  0.72849  0.82804  Biso   1.000  Hf
  Hf31     1.0000 0.86252  0.77038  0.57939  Biso   1.000  Hf
  Hf32     1.0000 0.86343  0.97717  0.82651  Biso   1.000  Hf
  O49      1.0000 0.03318  0.66372  0.58366  Biso   1.000  O
  O50      1.0000 0.03414  0.58538  0.83418  Biso   1.000  O
  O51      1.0000 0.46729  0.91317  0.58413  Biso   1.000  O
  O52      1.0000 0.46245  0.82392  0.83610  Biso   1.000  O
  O53      1.0000 0.27735  0.62079  0.79524  Biso   1.000  O
  O54      1.0000 0.27621  0.62514  0.54576  Biso   1.000  O
  O55      1.0000 0.22480  0.87251  0.79482  Biso   1.000  O
  O56      1.0000 0.22429  0.87490  0.54554  Biso   1.000  O
  O57      1.0000 0.53279  0.66231  0.66825  Biso   1.000  O
  O58      1.0000 0.53395  0.58615  0.92320  Biso   1.000  O
  O59      1.0000 0.96974  0.91362  0.66511  Biso   1.000  O
  O60      1.0000 0.97164  0.83633  0.91781  Biso   1.000  O
  O61      1.0000 0.78010  0.62871  0.95522  Biso   1.000  O
  O62      1.0000 0.77659  0.62493  0.70591  Biso   1.000  O
  O63      1.0000 0.72672  0.87172  0.95543  Biso   1.000  O
  O64      1.0000 0.72386  0.87381  0.70485  Biso   1.000  O
  Si1      1.0000 0.58905  0.26909  0.05046  Biso   1.000  Si
