data_image0
_cell_length_a       9.98988
_cell_length_b       10.3926
_cell_length_c       10.0477
_cell_angle_alpha    89.9357
_cell_angle_beta     89.8539
_cell_angle_gamma    90.6944

_symmetry_space_group_name_H-M    "P 1"
_symmetry_int_tables_number       1

loop_
  _symmetry_equiv_pos_as_xyz
  'x, y, z'

loop_
  _atom_site_label
  _atom_site_occupancy
  _atom_site_fract_x
  _atom_site_fract_y
  _atom_site_fract_z
  _atom_site_thermal_displace_type
  _atom_site_B_iso_or_equiv
  _atom_site_type_symbol
  Hf1      1.0000 0.14371  0.01673  0.11960  Biso   1.000  Hf
  Hf2      1.0000 0.13390  0.22640  0.40200  Biso   1.000  Hf
  Hf3      1.0000 0.37147  0.25831  0.11688  Biso   1.000  Hf
  Hf4      1.0000 0.37084  0.48425  0.37452  Biso   1.000  Hf
  Hf5      1.0000 0.01570  0.18065  0.23272  Biso   1.000  Hf
  Hf6      1.0000 0.03773  0.06083  0.45676  Biso   1.000  Hf
  Hf7      1.0000 0.45652  0.43103  0.19394  Biso   1.000  Hf
  Hf8      1.0000 0.46356  0.31513  0.44410  Biso   1.000  Hf
  Hf9      1.0000 0.26767  0.11657  0.25814  Biso   1.000  Hf
  Hf10     1.0000 0.27727  0.12764  0.50765  Biso   1.000  Hf
  Hf11     1.0000 0.23347  0.38247  0.49857  Biso   1.000  Hf
  Hf12     1.0000 0.20498  0.35625  0.24245  Biso   1.000  Hf
  Hf13     1.0000 0.13899  0.01190  0.63220  Biso   1.000  Hf
  Hf14     1.0000 0.13451  0.22991  0.87424  Biso   1.000  Hf
  Hf15     1.0000 0.37001  0.26674  0.62968  Biso   1.000  Hf
  Hf16     1.0000 0.36793  0.48578  0.87362  Biso   1.000  Hf
  Hf17     1.0000 0.04187  0.18376  0.68756  Biso   1.000  Hf
  Hf18     1.0000 0.04178  0.06116  0.94167  Biso   1.000  Hf
  Hf19     1.0000 0.46351  0.43552  0.69338  Biso   1.000  Hf
  Hf20     1.0000 0.46722  0.31412  0.93857  Biso   1.000  Hf
  Hf21     1.0000 0.27185  0.11708  0.75294  Biso   1.000  Hf
  Hf22     1.0000 0.29689  0.11560  0.99301  Biso   1.000  Hf
  Hf23     1.0000 0.23755  0.38625  0.00001  Biso   1.000  Hf
  Hf24     1.0000 0.22883  0.36776  0.74937  Biso   1.000  Hf
  Hf25     1.0000 0.12379  0.52589  0.12136  Biso   1.000  Hf
  Hf26     1.0000 0.13442  0.73429  0.37652  Biso   1.000  Hf
  Hf27     1.0000 0.36540  0.76419  0.12640  Biso   1.000  Hf
  Hf28     1.0000 0.36781  0.98207  0.37636  Biso   1.000  Hf
  Hf29     1.0000 0.03539  0.68942  0.19415  Biso   1.000  Hf
  Hf30     1.0000 0.03571  0.56841  0.44448  Biso   1.000  Hf
  Hf31     1.0000 0.46501  0.93264  0.19469  Biso   1.000  Hf
  Hf32     1.0000 0.46519  0.81473  0.44414  Biso   1.000  Hf
  Hf33     1.0000 0.26688  0.61292  0.24924  Biso   1.000  Hf
  Hf34     1.0000 0.27142  0.63193  0.49824  Biso   1.000  Hf
  Hf35     1.0000 0.23074  0.88094  0.50065  Biso   1.000  Hf
  Hf36     1.0000 0.23288  0.86563  0.24979  Biso   1.000  Hf
  Hf37     1.0000 0.13442  0.51666  0.62378  Biso   1.000  Hf
  Hf38     1.0000 0.13326  0.73428  0.87385  Biso   1.000  Hf
  Hf39     1.0000 0.36886  0.76403  0.62425  Biso   1.000  Hf
  Hf40     1.0000 0.37390  0.97754  0.87338  Biso   1.000  Hf
  Hf41     1.0000 0.03836  0.68581  0.69162  Biso   1.000  Hf
  Hf42     1.0000 0.03385  0.56444  0.94186  Biso   1.000  Hf
  Hf43     1.0000 0.46762  0.93247  0.69000  Biso   1.000  Hf
  Hf44     1.0000 0.46759  0.81364  0.94742  Biso   1.000  Hf
  Hf45     1.0000 0.26988  0.61661  0.74895  Biso   1.000  Hf
  Hf46     1.0000 0.26783  0.63430  0.99777  Biso   1.000  Hf
  Hf47     1.0000 0.23087  0.87844  0.99945  Biso   1.000  Hf
  Hf48     1.0000 0.23483  0.86460  0.75002  Biso   1.000  Hf
  Hf49     1.0000 0.63490  0.01597  0.12502  Biso   1.000  Hf
  Hf50     1.0000 0.63447  0.23264  0.37744  Biso   1.000  Hf
  Hf51     1.0000 0.85442  0.27515  0.11993  Biso   1.000  Hf
  Hf52     1.0000 0.86417  0.48572  0.37964  Biso   1.000  Hf
  Hf53     1.0000 0.53603  0.18080  0.19367  Biso   1.000  Hf
  Hf54     1.0000 0.53861  0.06461  0.44414  Biso   1.000  Hf
  Hf55     1.0000 0.94580  0.45023  0.19855  Biso   1.000  Hf
  Hf56     1.0000 0.96737  0.32086  0.45390  Biso   1.000  Hf
  Hf57     1.0000 0.76689  0.12011  0.24900  Biso   1.000  Hf
  Hf58     1.0000 0.77409  0.13540  0.49942  Biso   1.000  Hf
  Hf59     1.0000 0.72818  0.38159  0.50064  Biso   1.000  Hf
  Hf60     1.0000 0.72127  0.37117  0.25069  Biso   1.000  Hf
  Hf61     1.0000 0.63825  0.01670  0.62404  Biso   1.000  Hf
  Hf62     1.0000 0.63740  0.23136  0.87385  Biso   1.000  Hf
  Hf63     1.0000 0.86856  0.26912  0.63147  Biso   1.000  Hf
  Hf64     1.0000 0.86275  0.48416  0.87095  Biso   1.000  Hf
  Hf65     1.0000 0.53909  0.18348  0.69275  Biso   1.000  Hf
  Hf66     1.0000 0.54692  0.06106  0.93880  Biso   1.000  Hf
  Hf67     1.0000 0.95965  0.44221  0.68783  Biso   1.000  Hf
  Hf68     1.0000 0.94526  0.30858  0.90693  Biso   1.000  Hf
  Hf69     1.0000 0.77336  0.11709  0.74934  Biso   1.000  Hf
  Hf70     1.0000 0.77414  0.13154  0.00002  Biso   1.000  Hf
  Hf71     1.0000 0.72566  0.38401  0.00001  Biso   1.000  Hf
  Hf72     1.0000 0.72403  0.37106  0.74782  Biso   1.000  Hf
  Hf73     1.0000 0.63153  0.51857  0.12897  Biso   1.000  Hf
  Hf74     1.0000 0.63608  0.73658  0.37612  Biso   1.000  Hf
  Hf75     1.0000 0.86549  0.76882  0.12644  Biso   1.000  Hf
  Hf76     1.0000 0.87004  0.98864  0.37151  Biso   1.000  Hf
  Hf77     1.0000 0.53273  0.68193  0.19850  Biso   1.000  Hf
  Hf78     1.0000 0.53477  0.56640  0.44546  Biso   1.000  Hf
  Hf79     1.0000 0.96758  0.93761  0.19118  Biso   1.000  Hf
  Hf80     1.0000 0.96424  0.81731  0.44192  Biso   1.000  Hf
  Hf81     1.0000 0.76663  0.62231  0.25308  Biso   1.000  Hf
  Hf82     1.0000 0.76815  0.63464  0.50089  Biso   1.000  Hf
  Hf83     1.0000 0.73401  0.88552  0.49812  Biso   1.000  Hf
  Hf84     1.0000 0.73081  0.87030  0.24921  Biso   1.000  Hf
  Hf85     1.0000 0.63508  0.51681  0.62574  Biso   1.000  Hf
  Hf86     1.0000 0.63642  0.73320  0.87650  Biso   1.000  Hf
  Hf87     1.0000 0.86882  0.76835  0.62432  Biso   1.000  Hf
  Hf88     1.0000 0.86694  0.98275  0.87636  Biso   1.000  Hf
  Hf89     1.0000 0.53583  0.68261  0.69693  Biso   1.000  Hf
  Hf90     1.0000 0.53524  0.56647  0.94767  Biso   1.000  Hf
  Hf91     1.0000 0.96739  0.93199  0.69938  Biso   1.000  Hf
  Hf92     1.0000 0.96355  0.81393  0.94402  Biso   1.000  Hf
  Hf93     1.0000 0.77034  0.62000  0.74931  Biso   1.000  Hf
  Hf94     1.0000 0.76888  0.63225  0.00201  Biso   1.000  Hf
  Hf95     1.0000 0.73163  0.88130  0.00013  Biso   1.000  Hf
  Hf96     1.0000 0.73145  0.86780  0.74893  Biso   1.000  Hf
  Si1      1.0000 0.10799  0.27377  0.12702  Biso   1.000  Si
