data_image0
_cell_length_a       4.97796
_cell_length_b       10.3731
_cell_length_c       10.0039
_cell_angle_alpha    90.1063
_cell_angle_beta     89.7996
_cell_angle_gamma    90.0058

_symmetry_space_group_name_H-M    "P 1"
_symmetry_int_tables_number       1

loop_
  _symmetry_equiv_pos_as_xyz
  'x, y, z'

loop_
  _atom_site_label
  _atom_site_occupancy
  _atom_site_fract_x
  _atom_site_fract_y
  _atom_site_fract_z
  _atom_site_thermal_displace_type
  _atom_site_B_iso_or_equiv
  _atom_site_type_symbol
  Sn1      1.0000 0.26291  0.01830  0.12134  Biso   1.000  Sn
  Hf1      1.0000 0.26911  0.23244  0.37635  Biso   1.000  Hf
  Hf2      1.0000 0.73138  0.26654  0.12560  Biso   1.000  Hf
  Hf3      1.0000 0.73333  0.48334  0.37616  Biso   1.000  Hf
  Hf4      1.0000 0.07047  0.18428  0.19480  Biso   1.000  Hf
  Hf5      1.0000 0.07359  0.06558  0.44540  Biso   1.000  Hf
  Hf6      1.0000 0.92886  0.43326  0.19437  Biso   1.000  Hf
  Hf7      1.0000 0.92784  0.31542  0.44378  Biso   1.000  Hf
  Hf8      1.0000 0.53788  0.11549  0.24920  Biso   1.000  Hf
  Hf9      1.0000 0.54310  0.13243  0.49934  Biso   1.000  Hf
  Hf10     1.0000 0.45934  0.38231  0.49980  Biso   1.000  Hf
  Hf11     1.0000 0.45996  0.36670  0.24994  Biso   1.000  Hf
  Hf12     1.0000 0.26738  0.01670  0.62626  Biso   1.000  Hf
  Hf13     1.0000 0.26743  0.23556  0.87456  Biso   1.000  Hf
  Hf14     1.0000 0.73263  0.26679  0.62537  Biso   1.000  Hf
  Hf15     1.0000 0.73133  0.48451  0.87566  Biso   1.000  Hf
  Hf16     1.0000 0.07372  0.18554  0.69347  Biso   1.000  Hf
  Hf17     1.0000 0.07016  0.06669  0.94023  Biso   1.000  Hf
  Hf18     1.0000 0.92755  0.43468  0.69424  Biso   1.000  Hf
  Hf19     1.0000 0.92536  0.31592  0.94355  Biso   1.000  Hf
  Hf20     1.0000 0.54167  0.11843  0.74920  Biso   1.000  Hf
  Hf21     1.0000 0.53893  0.13267  0.99905  Biso   1.000  Hf
  Hf22     1.0000 0.45822  0.38285  0.99940  Biso   1.000  Hf
  Hf23     1.0000 0.45903  0.36855  0.74930  Biso   1.000  Hf
  Hf24     1.0000 0.26919  0.51617  0.12681  Biso   1.000  Hf
  Hf25     1.0000 0.27011  0.73426  0.37607  Biso   1.000  Hf
  Hf26     1.0000 0.73527  0.76505  0.12636  Biso   1.000  Hf
  Hf27     1.0000 0.73348  0.98344  0.37635  Biso   1.000  Hf
  Hf28     1.0000 0.07514  0.68367  0.19503  Biso   1.000  Hf
  Hf29     1.0000 0.07358  0.56545  0.44438  Biso   1.000  Hf
  Hf30     1.0000 0.93332  0.93265  0.19460  Biso   1.000  Hf
  Hf31     1.0000 0.92954  0.81572  0.44574  Biso   1.000  Hf
  Hf32     1.0000 0.54307  0.61569  0.24984  Biso   1.000  Hf
  Hf33     1.0000 0.54166  0.63279  0.49997  Biso   1.000  Hf
  Hf34     1.0000 0.46007  0.88283  0.50115  Biso   1.000  Hf
  Hf35     1.0000 0.47116  0.86417  0.25213  Biso   1.000  Hf
  Hf36     1.0000 0.26799  0.51701  0.62553  Biso   1.000  Hf
  Hf37     1.0000 0.26517  0.73358  0.87678  Biso   1.000  Hf
  Hf38     1.0000 0.73185  0.76668  0.62638  Biso   1.000  Hf
  Hf39     1.0000 0.72944  0.98388  0.87521  Biso   1.000  Hf
  Hf40     1.0000 0.07134  0.68431  0.69537  Biso   1.000  Hf
  Hf41     1.0000 0.07074  0.56609  0.94554  Biso   1.000  Hf
  Hf42     1.0000 0.92602  0.93475  0.69395  Biso   1.000  Hf
  Hf43     1.0000 0.92200  0.81605  0.94324  Biso   1.000  Hf
  Hf44     1.0000 0.53955  0.61806  0.75013  Biso   1.000  Hf
  Hf45     1.0000 0.53959  0.63295  0.99982  Biso   1.000  Hf
  Hf46     1.0000 0.45486  0.88309  0.00277  Biso   1.000  Hf
  Hf47     1.0000 0.45728  0.86773  0.75123  Biso   1.000  Hf
