data_image0
_cell_length_a       10.1033
_cell_length_b       10.3341
_cell_length_c       10.1435
_cell_angle_alpha    90.6739
_cell_angle_beta     86.9663
_cell_angle_gamma    89.4625

_symmetry_space_group_name_H-M    "P 1"
_symmetry_int_tables_number       1

loop_
  _symmetry_equiv_pos_as_xyz
  'x, y, z'

loop_
  _atom_site_label
  _atom_site_occupancy
  _atom_site_fract_x
  _atom_site_fract_y
  _atom_site_fract_z
  _atom_site_thermal_displace_type
  _atom_site_B_iso_or_equiv
  _atom_site_type_symbol
  Hf1      1.0000 0.12100  0.90014  0.12144  Biso   1.000  Hf
  Hf2      1.0000 0.14846  0.27120  0.40390  Biso   1.000  Hf
  Hf3      1.0000 0.40333  0.27539  0.15863  Biso   1.000  Hf
  Hf4      1.0000 0.37051  0.02739  0.38073  Biso   1.000  Hf
  Hf5      1.0000 0.94868  0.17011  0.93691  Biso   1.000  Hf
  Hf6      1.0000 0.98487  0.06277  0.18748  Biso   1.000  Hf
  Hf7      1.0000 0.01292  0.33869  0.26465  Biso   1.000  Hf
  Hf8      1.0000 0.00670  0.41633  0.00097  Biso   1.000  Hf
  Hf9      1.0000 0.35008  0.22917  0.35301  Biso   1.000  Hf
  Hf10     1.0000 0.19378  0.05415  0.98928  Biso   1.000  Hf
  Hf11     1.0000 0.27090  0.33918  0.00889  Biso   1.000  Hf
  Hf12     1.0000 0.26769  0.43637  0.25575  Biso   1.000  Hf
  Hf13     1.0000 0.10391  0.98834  0.60004  Biso   1.000  Hf
  Hf14     1.0000 0.12422  0.25999  0.88580  Biso   1.000  Hf
  Hf15     1.0000 0.36868  0.25945  0.63837  Biso   1.000  Hf
  Hf16     1.0000 0.34820  0.99073  0.86887  Biso   1.000  Hf
  Hf17     1.0000 0.00260  0.14088  0.46180  Biso   1.000  Hf
  Hf18     1.0000 0.98375  0.09844  0.71090  Biso   1.000  Hf
  Hf19     1.0000 0.00529  0.35008  0.74539  Biso   1.000  Hf
  Hf20     1.0000 0.01013  0.39565  0.50901  Biso   1.000  Hf
  Hf21     1.0000 0.26845  0.15780  0.77765  Biso   1.000  Hf
  Hf22     1.0000 0.24130  0.11910  0.52882  Biso   1.000  Hf
  Hf23     1.0000 0.25722  0.38202  0.52921  Biso   1.000  Hf
  Hf24     1.0000 0.25023  0.40886  0.77157  Biso   1.000  Hf
  Hf25     1.0000 0.12793  0.51080  0.12462  Biso   1.000  Hf
  Hf26     1.0000 0.10325  0.74089  0.38985  Biso   1.000  Hf
  Hf27     1.0000 0.39029  0.73525  0.10449  Biso   1.000  Hf
  Hf28     1.0000 0.39638  0.49743  0.39211  Biso   1.000  Hf
  Hf29     1.0000 0.04234  0.68172  0.04420  Biso   1.000  Hf
  Hf30     1.0000 0.02518  0.58671  0.28651  Biso   1.000  Hf
  Hf31     1.0000 0.97539  0.83332  0.25568  Biso   1.000  Hf
  Hf32     1.0000 0.97547  0.89329  0.98127  Biso   1.000  Hf
  Hf33     1.0000 0.22160  0.74466  0.22053  Biso   1.000  Hf
  Hf34     1.0000 0.28377  0.58402  0.01913  Biso   1.000  Hf
  Hf35     1.0000 0.25328  0.82452  0.97391  Biso   1.000  Hf
  Hf36     1.0000 0.23759  0.99658  0.24773  Biso   1.000  Hf
  Hf37     1.0000 0.12581  0.50742  0.64245  Biso   1.000  Hf
  Hf38     1.0000 0.10570  0.75439  0.85425  Biso   1.000  Hf
  Hf39     1.0000 0.35630  0.76194  0.59854  Biso   1.000  Hf
  Hf40     1.0000 0.39612  0.47756  0.88788  Biso   1.000  Hf
  Hf41     1.0000 0.01003  0.64766  0.54523  Biso   1.000  Hf
  Hf42     1.0000 0.01125  0.59445  0.79700  Biso   1.000  Hf
  Hf43     1.0000 0.98647  0.85255  0.73395  Biso   1.000  Hf
  Hf44     1.0000 0.97792  0.88878  0.48704  Biso   1.000  Hf
  Hf45     1.0000 0.24054  0.65840  0.72702  Biso   1.000  Hf
  Hf46     1.0000 0.25244  0.61937  0.47530  Biso   1.000  Hf
  Hf47     1.0000 0.23731  0.86637  0.47782  Biso   1.000  Hf
  Hf48     1.0000 0.23434  0.90573  0.72983  Biso   1.000  Hf
  Hf49     1.0000 0.59948  0.98427  0.10877  Biso   1.000  Hf
  Hf50     1.0000 0.62241  0.23544  0.39266  Biso   1.000  Hf
  Hf51     1.0000 0.88461  0.25514  0.11565  Biso   1.000  Hf
  Hf52     1.0000 0.87121  0.00805  0.34772  Biso   1.000  Hf
  Hf53     1.0000 0.47082  0.13520  0.02386  Biso   1.000  Hf
  Hf54     1.0000 0.52854  0.10394  0.26310  Biso   1.000  Hf
  Hf55     1.0000 0.54291  0.37398  0.26585  Biso   1.000  Hf
  Hf56     1.0000 0.51309  0.38713  0.01959  Biso   1.000  Hf
  Hf57     1.0000 0.77403  0.16925  0.26669  Biso   1.000  Hf
  Hf58     1.0000 0.72543  0.09138  0.99798  Biso   1.000  Hf
  Hf59     1.0000 0.75021  0.34738  0.98547  Biso   1.000  Hf
  Hf60     1.0000 0.79246  0.41863  0.21892  Biso   1.000  Hf
  Hf61     1.0000 0.61467  0.99416  0.62271  Biso   1.000  Hf
  Hf62     1.0000 0.61063  0.22383  0.89120  Biso   1.000  Hf
  Hf63     1.0000 0.87515  0.24252  0.61830  Biso   1.000  Hf
  Hf64     1.0000 0.86740  0.01096  0.85951  Biso   1.000  Hf
  Hf65     1.0000 0.50437  0.14282  0.53349  Biso   1.000  Hf
  Hf66     1.0000 0.51224  0.07554  0.78281  Biso   1.000  Hf
  Hf67     1.0000 0.49741  0.33112  0.77008  Biso   1.000  Hf
  Hf68     1.0000 0.50893  0.39184  0.51793  Biso   1.000  Hf
  Hf69     1.0000 0.74364  0.14743  0.74763  Biso   1.000  Hf
  Hf70     1.0000 0.75006  0.09496  0.50173  Biso   1.000  Hf
  Hf71     1.0000 0.76013  0.34570  0.48219  Biso   1.000  Hf
  Hf72     1.0000 0.75905  0.39100  0.72468  Biso   1.000  Hf
  Hf73     1.0000 0.64424  0.50506  0.12666  Biso   1.000  Hf
  Hf74     1.0000 0.60421  0.76573  0.35934  Biso   1.000  Hf
  Hf75     1.0000 0.85264  0.75527  0.10863  Biso   1.000  Hf
  Hf76     1.0000 0.88476  0.47728  0.37685  Biso   1.000  Hf
  Hf77     1.0000 0.53392  0.63139  0.99530  Biso   1.000  Hf
  Hf78     1.0000 0.48288  0.61215  0.24417  Biso   1.000  Hf
  Hf79     1.0000 0.47854  0.86011  0.23980  Biso   1.000  Hf
  Hf80     1.0000 0.48260  0.88181  0.98562  Biso   1.000  Hf
  Hf81     1.0000 0.73239  0.65761  0.24364  Biso   1.000  Hf
  Hf82     1.0000 0.79185  0.59539  0.00822  Biso   1.000  Hf
  Hf83     1.0000 0.72278  0.84119  0.99433  Biso   1.000  Hf
  Hf84     1.0000 0.73249  0.90748  0.24048  Biso   1.000  Hf
  Hf85     1.0000 0.63886  0.50124  0.62108  Biso   1.000  Hf
  Hf86     1.0000 0.61087  0.75076  0.85081  Biso   1.000  Hf
  Hf87     1.0000 0.85088  0.75718  0.61309  Biso   1.000  Hf
  Hf88     1.0000 0.86734  0.47459  0.86544  Biso   1.000  Hf
  Hf89     1.0000 0.50418  0.64700  0.49699  Biso   1.000  Hf
  Hf90     1.0000 0.50764  0.58631  0.75441  Biso   1.000  Hf
  Hf91     1.0000 0.48473  0.83793  0.73137  Biso   1.000  Hf
  Hf92     1.0000 0.48481  0.90390  0.49126  Biso   1.000  Hf
  Hf93     1.0000 0.75433  0.63921  0.75033  Biso   1.000  Hf
  Hf94     1.0000 0.76642  0.59796  0.49975  Biso   1.000  Hf
  Hf95     1.0000 0.72466  0.84556  0.49541  Biso   1.000  Hf
  Hf96     1.0000 0.73754  0.89209  0.74452  Biso   1.000  Hf
  Sn1      1.0000 0.14623  0.18663  0.14279  Biso   1.000  Sn
