data_image0
_cell_length_a       9.99644
_cell_length_b       10.4242
_cell_length_c       10.0983
_cell_angle_alpha    89.2097
_cell_angle_beta     90.9059
_cell_angle_gamma    90.9271

_symmetry_space_group_name_H-M    "P 1"
_symmetry_int_tables_number       1

loop_
  _symmetry_equiv_pos_as_xyz
  'x, y, z'

loop_
  _atom_site_label
  _atom_site_occupancy
  _atom_site_fract_x
  _atom_site_fract_y
  _atom_site_fract_z
  _atom_site_thermal_displace_type
  _atom_site_B_iso_or_equiv
  _atom_site_type_symbol
  Hf1      1.0000 0.14712  0.00493  0.11023  Biso   1.000  Hf
  Hf2      1.0000 0.12769  0.23179  0.39780  Biso   1.000  Hf
  Hf3      1.0000 0.36584  0.26173  0.11939  Biso   1.000  Hf
  Hf4      1.0000 0.37061  0.48672  0.37326  Biso   1.000  Hf
  Hf5      1.0000 0.97767  0.18498  0.25871  Biso   1.000  Hf
  Hf6      1.0000 0.04604  0.05510  0.45042  Biso   1.000  Hf
  Hf7      1.0000 0.45200  0.43448  0.19151  Biso   1.000  Hf
  Hf8      1.0000 0.46208  0.31755  0.44356  Biso   1.000  Hf
  Hf9      1.0000 0.25990  0.11349  0.24798  Biso   1.000  Hf
  Hf10     1.0000 0.27878  0.13057  0.49840  Biso   1.000  Hf
  Hf11     1.0000 0.23481  0.38641  0.49474  Biso   1.000  Hf
  Hf12     1.0000 0.20404  0.35614  0.23975  Biso   1.000  Hf
  Hf13     1.0000 0.14201  0.00563  0.62409  Biso   1.000  Hf
  Hf14     1.0000 0.14518  0.21994  0.84708  Biso   1.000  Hf
  Hf15     1.0000 0.37412  0.26658  0.62317  Biso   1.000  Hf
  Hf16     1.0000 0.36877  0.48316  0.87332  Biso   1.000  Hf
  Hf17     1.0000 0.05563  0.17958  0.66517  Biso   1.000  Hf
  Hf18     1.0000 0.05065  0.05113  0.92302  Biso   1.000  Hf
  Hf19     1.0000 0.46629  0.43418  0.69509  Biso   1.000  Hf
  Hf20     1.0000 0.46936  0.31404  0.94223  Biso   1.000  Hf
  Hf21     1.0000 0.28182  0.11113  0.74238  Biso   1.000  Hf
  Hf22     1.0000 0.29568  0.11752  0.98878  Biso   1.000  Hf
  Hf23     1.0000 0.23484  0.38553  0.99293  Biso   1.000  Hf
  Hf24     1.0000 0.23382  0.36606  0.74048  Biso   1.000  Hf
  Hf25     1.0000 0.12184  0.52586  0.12723  Biso   1.000  Hf
  Hf26     1.0000 0.13432  0.73644  0.37596  Biso   1.000  Hf
  Hf27     1.0000 0.36573  0.76154  0.12600  Biso   1.000  Hf
  Hf28     1.0000 0.36604  0.98491  0.37327  Biso   1.000  Hf
  Hf29     1.0000 0.03560  0.68921  0.19375  Biso   1.000  Hf
  Hf30     1.0000 0.03724  0.57347  0.44291  Biso   1.000  Hf
  Hf31     1.0000 0.46287  0.93306  0.19515  Biso   1.000  Hf
  Hf32     1.0000 0.46756  0.81716  0.44453  Biso   1.000  Hf
  Hf33     1.0000 0.26623  0.61483  0.25042  Biso   1.000  Hf
  Hf34     1.0000 0.27252  0.63435  0.49828  Biso   1.000  Hf
  Hf35     1.0000 0.23552  0.88077  0.49670  Biso   1.000  Hf
  Hf36     1.0000 0.23317  0.86331  0.24573  Biso   1.000  Hf
  Hf37     1.0000 0.13543  0.51760  0.61932  Biso   1.000  Hf
  Hf38     1.0000 0.13403  0.73180  0.87150  Biso   1.000  Hf
  Hf39     1.0000 0.37302  0.76364  0.62392  Biso   1.000  Hf
  Hf40     1.0000 0.37751  0.97625  0.87188  Biso   1.000  Hf
  Hf41     1.0000 0.04287  0.68912  0.68968  Biso   1.000  Hf
  Hf42     1.0000 0.03379  0.56320  0.94485  Biso   1.000  Hf
  Hf43     1.0000 0.47445  0.92938  0.69472  Biso   1.000  Hf
  Hf44     1.0000 0.47250  0.81400  0.95179  Biso   1.000  Hf
  Hf45     1.0000 0.27106  0.61434  0.74917  Biso   1.000  Hf
  Hf46     1.0000 0.26739  0.63237  0.99983  Biso   1.000  Hf
  Hf47     1.0000 0.23669  0.87518  0.99438  Biso   1.000  Hf
  Hf48     1.0000 0.23995  0.86148  0.74778  Biso   1.000  Hf
  Hf49     1.0000 0.63024  0.01218  0.12442  Biso   1.000  Hf
  Hf50     1.0000 0.62975  0.23027  0.39335  Biso   1.000  Hf
  Hf51     1.0000 0.81832  0.27207  0.15551  Biso   1.000  Hf
  Hf52     1.0000 0.86341  0.48782  0.39066  Biso   1.000  Hf
  Hf53     1.0000 0.53175  0.18366  0.19294  Biso   1.000  Hf
  Hf54     1.0000 0.53441  0.06516  0.45209  Biso   1.000  Hf
  Hf55     1.0000 0.94172  0.44818  0.21384  Biso   1.000  Hf
  Hf56     1.0000 0.97064  0.32773  0.46548  Biso   1.000  Hf
  Hf57     1.0000 0.74410  0.11348  0.26319  Biso   1.000  Hf
  Hf58     1.0000 0.77938  0.13639  0.50750  Biso   1.000  Hf
  Hf59     1.0000 0.72865  0.37916  0.51164  Biso   1.000  Hf
  Hf60     1.0000 0.70302  0.37998  0.26892  Biso   1.000  Hf
  Hf61     1.0000 0.64414  0.01587  0.62768  Biso   1.000  Hf
  Hf62     1.0000 0.63840  0.23231  0.87739  Biso   1.000  Hf
  Hf63     1.0000 0.87651  0.27365  0.64308  Biso   1.000  Hf
  Hf64     1.0000 0.86734  0.47902  0.87235  Biso   1.000  Hf
  Hf65     1.0000 0.54364  0.18431  0.69163  Biso   1.000  Hf
  Hf66     1.0000 0.54833  0.06141  0.93844  Biso   1.000  Hf
  Hf67     1.0000 0.95367  0.45818  0.67710  Biso   1.000  Hf
  Hf68     1.0000 0.95886  0.30155  0.85190  Biso   1.000  Hf
  Hf69     1.0000 0.77534  0.11700  0.75717  Biso   1.000  Hf
  Hf70     1.0000 0.77576  0.13671  0.01140  Biso   1.000  Hf
  Hf71     1.0000 0.73383  0.38419  0.00750  Biso   1.000  Hf
  Hf72     1.0000 0.72364  0.37241  0.75579  Biso   1.000  Hf
  Hf73     1.0000 0.62962  0.52346  0.13144  Biso   1.000  Hf
  Hf74     1.0000 0.63789  0.73907  0.37890  Biso   1.000  Hf
  Hf75     1.0000 0.86416  0.76879  0.12828  Biso   1.000  Hf
  Hf76     1.0000 0.87541  0.99403  0.36922  Biso   1.000  Hf
  Hf77     1.0000 0.53287  0.68245  0.20155  Biso   1.000  Hf
  Hf78     1.0000 0.53505  0.56790  0.44870  Biso   1.000  Hf
  Hf79     1.0000 0.96795  0.94284  0.18528  Biso   1.000  Hf
  Hf80     1.0000 0.96522  0.81860  0.44082  Biso   1.000  Hf
  Hf81     1.0000 0.76723  0.62457  0.25766  Biso   1.000  Hf
  Hf82     1.0000 0.76801  0.63643  0.50592  Biso   1.000  Hf
  Hf83     1.0000 0.73651  0.88836  0.49853  Biso   1.000  Hf
  Hf84     1.0000 0.73267  0.86983  0.24885  Biso   1.000  Hf
  Hf85     1.0000 0.63726  0.51686  0.63049  Biso   1.000  Hf
  Hf86     1.0000 0.63870  0.73322  0.87769  Biso   1.000  Hf
  Hf87     1.0000 0.87105  0.76974  0.62529  Biso   1.000  Hf
  Hf88     1.0000 0.87030  0.98095  0.87708  Biso   1.000  Hf
  Hf89     1.0000 0.53845  0.68129  0.69952  Biso   1.000  Hf
  Hf90     1.0000 0.53463  0.56752  0.94974  Biso   1.000  Hf
  Hf91     1.0000 0.96890  0.93333  0.69697  Biso   1.000  Hf
  Hf92     1.0000 0.96659  0.81064  0.94568  Biso   1.000  Hf
  Hf93     1.0000 0.77384  0.61962  0.75634  Biso   1.000  Hf
  Hf94     1.0000 0.76775  0.63374  0.00693  Biso   1.000  Hf
  Hf95     1.0000 0.73367  0.88308  0.00067  Biso   1.000  Hf
  Hf96     1.0000 0.73623  0.86630  0.75020  Biso   1.000  Hf
  Sn1      1.0000 0.06968  0.26526  0.09259  Biso   1.000  Sn
