data_image0
_cell_length_a       9.9565
_cell_length_b       10.3721
_cell_length_c       5.0024
_cell_angle_alpha    90.1172
_cell_angle_beta     89.8165
_cell_angle_gamma    89.9911

_symmetry_space_group_name_H-M    "P 1"
_symmetry_int_tables_number       1

loop_
  _symmetry_equiv_pos_as_xyz
  'x, y, z'

loop_
  _atom_site_label
  _atom_site_occupancy
  _atom_site_fract_x
  _atom_site_fract_y
  _atom_site_fract_z
  _atom_site_thermal_displace_type
  _atom_site_B_iso_or_equiv
  _atom_site_type_symbol
  Sn1      1.0000 0.13112  0.01846  0.24366  Biso   1.000  Sn
  Hf1      1.0000 0.13429  0.23455  0.75009  Biso   1.000  Hf
  Hf2      1.0000 0.36665  0.26671  0.25123  Biso   1.000  Hf
  Hf3      1.0000 0.36627  0.48410  0.75215  Biso   1.000  Hf
  Hf4      1.0000 0.03590  0.18496  0.38839  Biso   1.000  Hf
  Hf5      1.0000 0.03514  0.06659  0.88327  Biso   1.000  Hf
  Hf6      1.0000 0.46413  0.43436  0.38853  Biso   1.000  Hf
  Hf7      1.0000 0.46341  0.31561  0.88765  Biso   1.000  Hf
  Hf8      1.0000 0.26987  0.11631  0.49680  Biso   1.000  Hf
  Hf9      1.0000 0.27070  0.13307  0.99673  Biso   1.000  Hf
  Hf10     1.0000 0.22960  0.38290  0.99903  Biso   1.000  Hf
  Hf11     1.0000 0.23026  0.36755  0.49910  Biso   1.000  Hf
  Hf12     1.0000 0.13423  0.51649  0.25221  Biso   1.000  Hf
  Hf13     1.0000 0.13371  0.73394  0.75351  Biso   1.000  Hf
  Hf14     1.0000 0.36628  0.76602  0.25558  Biso   1.000  Hf
  Hf15     1.0000 0.36607  0.98382  0.75226  Biso   1.000  Hf
  Hf16     1.0000 0.03636  0.68380  0.39026  Biso   1.000  Hf
  Hf17     1.0000 0.03581  0.56555  0.89028  Biso   1.000  Hf
  Hf18     1.0000 0.46525  0.93373  0.39029  Biso   1.000  Hf
  Hf19     1.0000 0.46227  0.81577  0.88956  Biso   1.000  Hf
  Hf20     1.0000 0.27048  0.61640  0.50041  Biso   1.000  Hf
  Hf21     1.0000 0.27029  0.63334  0.00050  Biso   1.000  Hf
  Hf22     1.0000 0.22862  0.88388  0.00895  Biso   1.000  Hf
  Hf23     1.0000 0.23261  0.86467  0.50814  Biso   1.000  Hf
  Hf24     1.0000 0.63396  0.01626  0.25151  Biso   1.000  Hf
  Hf25     1.0000 0.63412  0.23345  0.75155  Biso   1.000  Hf
  Hf26     1.0000 0.86540  0.26651  0.25037  Biso   1.000  Hf
  Hf27     1.0000 0.86611  0.48371  0.75151  Biso   1.000  Hf
  Hf28     1.0000 0.53609  0.18442  0.38870  Biso   1.000  Hf
  Hf29     1.0000 0.53678  0.06576  0.88836  Biso   1.000  Hf
  Hf30     1.0000 0.96424  0.43342  0.38891  Biso   1.000  Hf
  Hf31     1.0000 0.96346  0.31588  0.88730  Biso   1.000  Hf
  Hf32     1.0000 0.76990  0.11755  0.49909  Biso   1.000  Hf
  Hf33     1.0000 0.77069  0.13234  0.99903  Biso   1.000  Hf
  Hf34     1.0000 0.72929  0.38237  0.99925  Biso   1.000  Hf
  Hf35     1.0000 0.72936  0.36761  0.49919  Biso   1.000  Hf
  Hf36     1.0000 0.63433  0.51665  0.25243  Biso   1.000  Hf
  Hf37     1.0000 0.63375  0.73389  0.75229  Biso   1.000  Hf
  Hf38     1.0000 0.86712  0.76574  0.25014  Biso   1.000  Hf
  Hf39     1.0000 0.86539  0.98369  0.75086  Biso   1.000  Hf
  Hf40     1.0000 0.53673  0.68414  0.39070  Biso   1.000  Hf
  Hf41     1.0000 0.53628  0.56608  0.88973  Biso   1.000  Hf
  Hf42     1.0000 0.96440  0.93358  0.38736  Biso   1.000  Hf
  Hf43     1.0000 0.96339  0.81611  0.88875  Biso   1.000  Hf
  Hf44     1.0000 0.77078  0.61738  0.49959  Biso   1.000  Hf
  Hf45     1.0000 0.77025  0.63246  0.99918  Biso   1.000  Hf
  Hf46     1.0000 0.72880  0.88215  0.99872  Biso   1.000  Hf
  Hf47     1.0000 0.73137  0.86733  0.49843  Biso   1.000  Hf
