data_image0
_cell_length_a       5.01667
_cell_length_b       10.2749
_cell_length_c       10.0999
_cell_angle_alpha    90.0026
_cell_angle_beta     89.9988
_cell_angle_gamma    89.9999

_symmetry_space_group_name_H-M    "P 1"
_symmetry_int_tables_number       1

loop_
  _symmetry_equiv_pos_as_xyz
  'x, y, z'

loop_
  _atom_site_label
  _atom_site_occupancy
  _atom_site_fract_x
  _atom_site_fract_y
  _atom_site_fract_z
  _atom_site_thermal_displace_type
  _atom_site_B_iso_or_equiv
  _atom_site_type_symbol
  Sr1      1.0000 0.25313  0.00003  0.12562  Biso   1.000  Sr
  Hf1      1.0000 0.25293  0.00005  0.62562  Biso   1.000  Hf
  Hf2      1.0000 0.25306  0.50003  0.12563  Biso   1.000  Hf
  Hf3      1.0000 0.25304  0.50004  0.62563  Biso   1.000  Hf
  Hf4      1.0000 0.25131  0.25376  0.37649  Biso   1.000  Hf
  Hf5      1.0000 0.25478  0.25379  0.87476  Biso   1.000  Hf
  Hf6      1.0000 0.25476  0.74629  0.37650  Biso   1.000  Hf
  Hf7      1.0000 0.25129  0.74631  0.87476  Biso   1.000  Hf
  Hf8      1.0000 0.75308  0.25621  0.12561  Biso   1.000  Hf
  Hf9      1.0000 0.75296  0.24626  0.62564  Biso   1.000  Hf
  Hf10     1.0000 0.75307  0.74386  0.12565  Biso   1.000  Hf
  Hf11     1.0000 0.75296  0.75382  0.62561  Biso   1.000  Hf
  Hf12     1.0000 0.75307  0.00010  0.37552  Biso   1.000  Hf
  Hf13     1.0000 0.75310  0.99993  0.87573  Biso   1.000  Hf
  Hf14     1.0000 0.75304  0.50002  0.37728  Biso   1.000  Hf
  Hf15     1.0000 0.75307  0.50005  0.87398  Biso   1.000  Hf
  Hf16     1.0000 0.00044  0.15111  0.99587  Biso   1.000  Hf
  Hf17     1.0000 0.02727  0.14984  0.51089  Biso   1.000  Hf
  Hf18     1.0000 0.02481  0.64007  0.00705  Biso   1.000  Hf
  Hf19     1.0000 0.00340  0.64694  0.50566  Biso   1.000  Hf
  Hf20     1.0000 0.97642  0.12337  0.26530  Biso   1.000  Hf
  Hf21     1.0000 0.98700  0.10064  0.75007  Biso   1.000  Hf
  Hf22     1.0000 0.98715  0.60407  0.25227  Biso   1.000  Hf
  Hf23     1.0000 0.00608  0.60205  0.75530  Biso   1.000  Hf
  Hf24     1.0000 0.02485  0.35998  0.24418  Biso   1.000  Hf
  Hf25     1.0000 0.00343  0.35313  0.74558  Biso   1.000  Hf
  Hf26     1.0000 0.00043  0.84894  0.25538  Biso   1.000  Hf
  Hf27     1.0000 0.02722  0.85024  0.74037  Biso   1.000  Hf
  Hf28     1.0000 0.98720  0.39598  0.99896  Biso   1.000  Hf
  Hf29     1.0000 0.00609  0.39803  0.49595  Biso   1.000  Hf
  Hf30     1.0000 0.97644  0.87668  0.98596  Biso   1.000  Hf
  Hf31     1.0000 0.98708  0.89943  0.50116  Biso   1.000  Hf
  Hf32     1.0000 0.50573  0.15116  0.25532  Biso   1.000  Hf
  Hf33     1.0000 0.47838  0.14988  0.74022  Biso   1.000  Hf
  Hf34     1.0000 0.48126  0.64008  0.24422  Biso   1.000  Hf
  Hf35     1.0000 0.50271  0.64694  0.74563  Biso   1.000  Hf
  Hf36     1.0000 0.52977  0.12337  0.98585  Biso   1.000  Hf
  Hf37     1.0000 0.51863  0.10064  0.50107  Biso   1.000  Hf
  Hf38     1.0000 0.51893  0.60406  0.99900  Biso   1.000  Hf
  Hf39     1.0000 0.50008  0.60206  0.49598  Biso   1.000  Hf
  Hf40     1.0000 0.48130  0.35999  0.00703  Biso   1.000  Hf
  Hf41     1.0000 0.50272  0.35314  0.50561  Biso   1.000  Hf
  Hf42     1.0000 0.50575  0.84890  0.99591  Biso   1.000  Hf
  Hf43     1.0000 0.47846  0.85022  0.51100  Biso   1.000  Hf
  Hf44     1.0000 0.51897  0.39600  0.25224  Biso   1.000  Hf
  Hf45     1.0000 0.50011  0.39802  0.75526  Biso   1.000  Hf
  Hf46     1.0000 0.52976  0.87670  0.26538  Biso   1.000  Hf
  Hf47     1.0000 0.51858  0.89944  0.75018  Biso   1.000  Hf
