data_image0
_cell_length_a       5.00688
_cell_length_b       10.4117
_cell_length_c       10.1093
_cell_angle_alpha    90.2268
_cell_angle_beta     90.3676
_cell_angle_gamma    89.9853

_symmetry_space_group_name_H-M    "P 1"
_symmetry_int_tables_number       1

loop_
  _symmetry_equiv_pos_as_xyz
  'x, y, z'

loop_
  _atom_site_label
  _atom_site_occupancy
  _atom_site_fract_x
  _atom_site_fract_y
  _atom_site_fract_z
  _atom_site_thermal_displace_type
  _atom_site_B_iso_or_equiv
  _atom_site_type_symbol
  Sr1      1.0000 0.25388  0.00775  0.11821  Biso   1.000  Sr
  Hf1      1.0000 0.26488  0.01768  0.62733  Biso   1.000  Hf
  Hf2      1.0000 0.26860  0.51447  0.12538  Biso   1.000  Hf
  Hf3      1.0000 0.26782  0.51592  0.62747  Biso   1.000  Hf
  Hf4      1.0000 0.26726  0.23345  0.37721  Biso   1.000  Hf
  Hf5      1.0000 0.27390  0.23471  0.87117  Biso   1.000  Hf
  Hf6      1.0000 0.26307  0.73125  0.38147  Biso   1.000  Hf
  Hf7      1.0000 0.27783  0.73125  0.87493  Biso   1.000  Hf
  Hf8      1.0000 0.71905  0.26596  0.12843  Biso   1.000  Hf
  Hf9      1.0000 0.73242  0.26729  0.62392  Biso   1.000  Hf
  Hf10     1.0000 0.72737  0.76054  0.12720  Biso   1.000  Hf
  Hf11     1.0000 0.73133  0.76620  0.62484  Biso   1.000  Hf
  Hf12     1.0000 0.72648  0.48304  0.37769  Biso   1.000  Hf
  Hf13     1.0000 0.73462  0.48114  0.87736  Biso   1.000  Hf
  Hf14     1.0000 0.72033  0.98397  0.37975  Biso   1.000  Hf
  Hf15     1.0000 0.73354  0.98359  0.87020  Biso   1.000  Hf
  Hf16     1.0000 0.06312  0.20267  0.20208  Biso   1.000  Hf
  Hf17     1.0000 0.08224  0.19093  0.68221  Biso   1.000  Hf
  Hf18     1.0000 0.07404  0.68345  0.19822  Biso   1.000  Hf
  Hf19     1.0000 0.07174  0.68382  0.69510  Biso   1.000  Hf
  Hf20     1.0000 0.06742  0.06513  0.44213  Biso   1.000  Hf
  Hf21     1.0000 0.07883  0.07024  0.90566  Biso   1.000  Hf
  Hf22     1.0000 0.06741  0.56464  0.44801  Biso   1.000  Hf
  Hf23     1.0000 0.06853  0.56928  0.94676  Biso   1.000  Hf
  Hf24     1.0000 0.92295  0.43871  0.19567  Biso   1.000  Hf
  Hf25     1.0000 0.93258  0.43428  0.69776  Biso   1.000  Hf
  Hf26     1.0000 0.86656  0.93189  0.20083  Biso   1.000  Hf
  Hf27     1.0000 0.92212  0.93349  0.68852  Biso   1.000  Hf
  Hf28     1.0000 0.92573  0.31873  0.44606  Biso   1.000  Hf
  Hf29     1.0000 0.93761  0.31877  0.94691  Biso   1.000  Hf
  Hf30     1.0000 0.92586  0.81501  0.44782  Biso   1.000  Hf
  Hf31     1.0000 0.96123  0.82459  0.95420  Biso   1.000  Hf
  Hf32     1.0000 0.55897  0.13005  0.26028  Biso   1.000  Hf
  Hf33     1.0000 0.54810  0.11937  0.74590  Biso   1.000  Hf
  Hf34     1.0000 0.53821  0.61194  0.24976  Biso   1.000  Hf
  Hf35     1.0000 0.54415  0.61690  0.74998  Biso   1.000  Hf
  Hf36     1.0000 0.53363  0.13193  0.50349  Biso   1.000  Hf
  Hf37     1.0000 0.56337  0.13679  0.99065  Biso   1.000  Hf
  Hf38     1.0000 0.53886  0.63126  0.50072  Biso   1.000  Hf
  Hf39     1.0000 0.54228  0.62525  0.99988  Biso   1.000  Hf
  Hf40     1.0000 0.45804  0.38320  0.50063  Biso   1.000  Hf
  Hf41     1.0000 0.45969  0.38208  0.99980  Biso   1.000  Hf
  Hf42     1.0000 0.45135  0.88208  0.50180  Biso   1.000  Hf
  Hf43     1.0000 0.49485  0.86519  0.98852  Biso   1.000  Hf
  Hf44     1.0000 0.45139  0.37079  0.25116  Biso   1.000  Hf
  Hf45     1.0000 0.46478  0.36922  0.74891  Biso   1.000  Hf
  Hf46     1.0000 0.46298  0.85001  0.25672  Biso   1.000  Hf
  Hf47     1.0000 0.45755  0.86789  0.74648  Biso   1.000  Hf
