data_image0
_cell_length_a       10.0505
_cell_length_b       10.2096
_cell_length_c       10.0505
_cell_angle_alpha    89.9983
_cell_angle_beta     89.9992
_cell_angle_gamma    89.9982

_symmetry_space_group_name_H-M    "P 1"
_symmetry_int_tables_number       1

loop_
  _symmetry_equiv_pos_as_xyz
  'x, y, z'

loop_
  _atom_site_label
  _atom_site_occupancy
  _atom_site_fract_x
  _atom_site_fract_y
  _atom_site_fract_z
  _atom_site_thermal_displace_type
  _atom_site_B_iso_or_equiv
  _atom_site_type_symbol
  Sr1      1.0000 0.12559  0.00032  0.12560  Biso   1.000  Sr
  Hf1      1.0000 0.12558  0.00032  0.62560  Biso   1.000  Hf
  Hf2      1.0000 0.12559  0.50032  0.12560  Biso   1.000  Hf
  Hf3      1.0000 0.12559  0.50032  0.62560  Biso   1.000  Hf
  Hf4      1.0000 0.62558  0.00032  0.12560  Biso   1.000  Hf
  Hf5      1.0000 0.62558  0.00032  0.62560  Biso   1.000  Hf
  Hf6      1.0000 0.62559  0.50032  0.12560  Biso   1.000  Hf
  Hf7      1.0000 0.62559  0.50032  0.62560  Biso   1.000  Hf
  Hf8      1.0000 0.12403  0.25184  0.37635  Biso   1.000  Hf
  Hf9      1.0000 0.12716  0.25185  0.87487  Biso   1.000  Hf
  Hf10     1.0000 0.12716  0.74880  0.37635  Biso   1.000  Hf
  Hf11     1.0000 0.12403  0.74880  0.87486  Biso   1.000  Hf
  Hf12     1.0000 0.62545  0.24968  0.37550  Biso   1.000  Hf
  Hf13     1.0000 0.62573  0.24968  0.87571  Biso   1.000  Hf
  Hf14     1.0000 0.62573  0.75096  0.37550  Biso   1.000  Hf
  Hf15     1.0000 0.62545  0.75097  0.87571  Biso   1.000  Hf
  Hf16     1.0000 0.37633  0.25184  0.12405  Biso   1.000  Hf
  Hf17     1.0000 0.37549  0.24968  0.62547  Biso   1.000  Hf
  Hf18     1.0000 0.37633  0.74880  0.12717  Biso   1.000  Hf
  Hf19     1.0000 0.37548  0.75096  0.62574  Biso   1.000  Hf
  Hf20     1.0000 0.87485  0.25184  0.12717  Biso   1.000  Hf
  Hf21     1.0000 0.87569  0.24968  0.62575  Biso   1.000  Hf
  Hf22     1.0000 0.87485  0.74880  0.12405  Biso   1.000  Hf
  Hf23     1.0000 0.87570  0.75097  0.62546  Biso   1.000  Hf
  Hf24     1.0000 0.37590  0.00151  0.37592  Biso   1.000  Hf
  Hf25     1.0000 0.37590  0.99913  0.87528  Biso   1.000  Hf
  Hf26     1.0000 0.37652  0.49943  0.37653  Biso   1.000  Hf
  Hf27     1.0000 0.37652  0.50121  0.87467  Biso   1.000  Hf
  Hf28     1.0000 0.87526  0.99913  0.37592  Biso   1.000  Hf
  Hf29     1.0000 0.87526  0.00151  0.87528  Biso   1.000  Hf
  Hf30     1.0000 0.87465  0.50121  0.37653  Biso   1.000  Hf
  Hf31     1.0000 0.87465  0.49944  0.87466  Biso   1.000  Hf
  Hf32     1.0000 0.99417  0.15385  0.99419  Biso   1.000  Hf
  Hf33     1.0000 0.00827  0.14880  0.51036  Biso   1.000  Hf
  Hf34     1.0000 0.00546  0.64274  0.00547  Biso   1.000  Hf
  Hf35     1.0000 0.00165  0.64695  0.50462  Biso   1.000  Hf
  Hf36     1.0000 0.51034  0.14880  0.00828  Biso   1.000  Hf
  Hf37     1.0000 0.50554  0.14811  0.50555  Biso   1.000  Hf
  Hf38     1.0000 0.50460  0.64695  0.00166  Biso   1.000  Hf
  Hf39     1.0000 0.50110  0.64780  0.50112  Biso   1.000  Hf
  Hf40     1.0000 0.98601  0.12129  0.26519  Biso   1.000  Hf
  Hf41     1.0000 0.99720  0.10219  0.75186  Biso   1.000  Hf
  Hf42     1.0000 0.99827  0.60206  0.25290  Biso   1.000  Hf
  Hf43     1.0000 0.00071  0.60266  0.75398  Biso   1.000  Hf
  Hf44     1.0000 0.49933  0.10218  0.25399  Biso   1.000  Hf
  Hf45     1.0000 0.49822  0.10316  0.75297  Biso   1.000  Hf
  Hf46     1.0000 0.49719  0.60266  0.25047  Biso   1.000  Hf
  Hf47     1.0000 0.50038  0.60306  0.75080  Biso   1.000  Hf
  Hf48     1.0000 0.00547  0.35790  0.24572  Biso   1.000  Hf
  Hf49     1.0000 0.00165  0.35369  0.74658  Biso   1.000  Hf
  Hf50     1.0000 0.99417  0.84680  0.25702  Biso   1.000  Hf
  Hf51     1.0000 0.00826  0.85185  0.74086  Biso   1.000  Hf
  Hf52     1.0000 0.50461  0.35369  0.24954  Biso   1.000  Hf
  Hf53     1.0000 0.50111  0.35284  0.75009  Biso   1.000  Hf
  Hf54     1.0000 0.51034  0.85184  0.24291  Biso   1.000  Hf
  Hf55     1.0000 0.50554  0.85253  0.74565  Biso   1.000  Hf
  Hf56     1.0000 0.99829  0.39859  0.99829  Biso   1.000  Hf
  Hf57     1.0000 0.00071  0.39798  0.49721  Biso   1.000  Hf
  Hf58     1.0000 0.98601  0.87936  0.98603  Biso   1.000  Hf
  Hf59     1.0000 0.99719  0.89846  0.49935  Biso   1.000  Hf
  Hf60     1.0000 0.49720  0.39798  0.00073  Biso   1.000  Hf
  Hf61     1.0000 0.50038  0.39758  0.50040  Biso   1.000  Hf
  Hf62     1.0000 0.49933  0.89846  0.99721  Biso   1.000  Hf
  Hf63     1.0000 0.49822  0.89748  0.49823  Biso   1.000  Hf
  Hf64     1.0000 0.25700  0.15384  0.25702  Biso   1.000  Hf
  Hf65     1.0000 0.24291  0.14880  0.74086  Biso   1.000  Hf
  Hf66     1.0000 0.24570  0.64274  0.24571  Biso   1.000  Hf
  Hf67     1.0000 0.24952  0.64695  0.74657  Biso   1.000  Hf
  Hf68     1.0000 0.74084  0.14880  0.24292  Biso   1.000  Hf
  Hf69     1.0000 0.74563  0.14811  0.74565  Biso   1.000  Hf
  Hf70     1.0000 0.74656  0.64695  0.24953  Biso   1.000  Hf
  Hf71     1.0000 0.75006  0.64780  0.75008  Biso   1.000  Hf
  Hf72     1.0000 0.26517  0.12129  0.98603  Biso   1.000  Hf
  Hf73     1.0000 0.25398  0.10219  0.49935  Biso   1.000  Hf
  Hf74     1.0000 0.25288  0.60206  0.99829  Biso   1.000  Hf
  Hf75     1.0000 0.25046  0.60266  0.49721  Biso   1.000  Hf
  Hf76     1.0000 0.75185  0.10219  0.99722  Biso   1.000  Hf
  Hf77     1.0000 0.75295  0.10316  0.49824  Biso   1.000  Hf
  Hf78     1.0000 0.75397  0.60267  0.00072  Biso   1.000  Hf
  Hf79     1.0000 0.75079  0.60306  0.50039  Biso   1.000  Hf
  Hf80     1.0000 0.24571  0.35790  0.00548  Biso   1.000  Hf
  Hf81     1.0000 0.24953  0.35369  0.50463  Biso   1.000  Hf
  Hf82     1.0000 0.25701  0.84680  0.99419  Biso   1.000  Hf
  Hf83     1.0000 0.24290  0.85184  0.51036  Biso   1.000  Hf
  Hf84     1.0000 0.74657  0.35369  0.00166  Biso   1.000  Hf
  Hf85     1.0000 0.75007  0.35284  0.50112  Biso   1.000  Hf
  Hf86     1.0000 0.74084  0.85184  0.00828  Biso   1.000  Hf
  Hf87     1.0000 0.74563  0.85253  0.50556  Biso   1.000  Hf
  Hf88     1.0000 0.25290  0.39858  0.25291  Biso   1.000  Hf
  Hf89     1.0000 0.25047  0.39798  0.75399  Biso   1.000  Hf
  Hf90     1.0000 0.26517  0.87935  0.26519  Biso   1.000  Hf
  Hf91     1.0000 0.25397  0.89846  0.75186  Biso   1.000  Hf
  Hf92     1.0000 0.75398  0.39798  0.25047  Biso   1.000  Hf
  Hf93     1.0000 0.75080  0.39758  0.75080  Biso   1.000  Hf
  Hf94     1.0000 0.75184  0.89846  0.25399  Biso   1.000  Hf
  Hf95     1.0000 0.75295  0.89748  0.75297  Biso   1.000  Hf
