data_image0
_cell_length_a       10.0569
_cell_length_b       10.4235
_cell_length_c       5.02781
_cell_angle_alpha    90.0955
_cell_angle_beta     90.2927
_cell_angle_gamma    89.9429

_symmetry_space_group_name_H-M    "P 1"
_symmetry_int_tables_number       1

loop_
  _symmetry_equiv_pos_as_xyz
  'x, y, z'

loop_
  _atom_site_label
  _atom_site_occupancy
  _atom_site_fract_x
  _atom_site_fract_y
  _atom_site_fract_z
  _atom_site_thermal_displace_type
  _atom_site_B_iso_or_equiv
  _atom_site_type_symbol
  Sr1      1.0000 0.12298  0.01009  0.25121  Biso   1.000  Sr
  Hf1      1.0000 0.13550  0.51644  0.25286  Biso   1.000  Hf
  Hf2      1.0000 0.63400  0.01532  0.25016  Biso   1.000  Hf
  Hf3      1.0000 0.63247  0.51510  0.25413  Biso   1.000  Hf
  Hf4      1.0000 0.13444  0.23750  0.74988  Biso   1.000  Hf
  Hf5      1.0000 0.13849  0.73271  0.75768  Biso   1.000  Hf
  Hf6      1.0000 0.63310  0.23208  0.75034  Biso   1.000  Hf
  Hf7      1.0000 0.63341  0.73081  0.75552  Biso   1.000  Hf
  Hf8      1.0000 0.36678  0.26673  0.25400  Biso   1.000  Hf
  Hf9      1.0000 0.36764  0.76413  0.25135  Biso   1.000  Hf
  Hf10     1.0000 0.85857  0.26880  0.25198  Biso   1.000  Hf
  Hf11     1.0000 0.86313  0.76127  0.25222  Biso   1.000  Hf
  Hf12     1.0000 0.36556  0.48198  0.75412  Biso   1.000  Hf
  Hf13     1.0000 0.36665  0.98167  0.75034  Biso   1.000  Hf
  Hf14     1.0000 0.86604  0.48345  0.75800  Biso   1.000  Hf
  Hf15     1.0000 0.86075  0.98050  0.75305  Biso   1.000  Hf
  Hf16     1.0000 0.03191  0.21062  0.39467  Biso   1.000  Hf
  Hf17     1.0000 0.03748  0.68641  0.39141  Biso   1.000  Hf
  Hf18     1.0000 0.54043  0.18574  0.38125  Biso   1.000  Hf
  Hf19     1.0000 0.53641  0.68064  0.39538  Biso   1.000  Hf
  Hf20     1.0000 0.03370  0.07013  0.81270  Biso   1.000  Hf
  Hf21     1.0000 0.03480  0.56783  0.89400  Biso   1.000  Hf
  Hf22     1.0000 0.53893  0.06487  0.88462  Biso   1.000  Hf
  Hf23     1.0000 0.53355  0.56573  0.89595  Biso   1.000  Hf
  Hf24     1.0000 0.46528  0.43306  0.39339  Biso   1.000  Hf
  Hf25     1.0000 0.46504  0.93523  0.38871  Biso   1.000  Hf
  Hf26     1.0000 0.96173  0.44100  0.39220  Biso   1.000  Hf
  Hf27     1.0000 0.93098  0.92723  0.39499  Biso   1.000  Hf
  Hf28     1.0000 0.46642  0.31693  0.88938  Biso   1.000  Hf
  Hf29     1.0000 0.47345  0.81841  0.90020  Biso   1.000  Hf
  Hf30     1.0000 0.96469  0.32032  0.89898  Biso   1.000  Hf
  Hf31     1.0000 0.96974  0.81908  0.90232  Biso   1.000  Hf
  Hf32     1.0000 0.28566  0.13037  0.51618  Biso   1.000  Hf
  Hf33     1.0000 0.27018  0.61337  0.50115  Biso   1.000  Hf
  Hf34     1.0000 0.76847  0.11830  0.50081  Biso   1.000  Hf
  Hf35     1.0000 0.77097  0.61595  0.49942  Biso   1.000  Hf
  Hf36     1.0000 0.27783  0.13602  0.99153  Biso   1.000  Hf
  Hf37     1.0000 0.27182  0.62794  0.00298  Biso   1.000  Hf
  Hf38     1.0000 0.77109  0.13239  0.00080  Biso   1.000  Hf
  Hf39     1.0000 0.76853  0.62882  0.99753  Biso   1.000  Hf
  Hf40     1.0000 0.23121  0.38318  0.00208  Biso   1.000  Hf
  Hf41     1.0000 0.24222  0.87024  0.98906  Biso   1.000  Hf
  Hf42     1.0000 0.72801  0.38257  0.00037  Biso   1.000  Hf
  Hf43     1.0000 0.72993  0.87804  0.00400  Biso   1.000  Hf
  Hf44     1.0000 0.22940  0.37083  0.49950  Biso   1.000  Hf
  Hf45     1.0000 0.24391  0.85532  0.51187  Biso   1.000  Hf
  Hf46     1.0000 0.72918  0.36895  0.50379  Biso   1.000  Hf
  Hf47     1.0000 0.71626  0.86553  0.50320  Biso   1.000  Hf
