data_image0
_cell_length_a       10.0887
_cell_length_b       5.10418
_cell_length_c       10.0887
_cell_angle_alpha    90.0007
_cell_angle_beta     89.9991
_cell_angle_gamma    90.0008

_symmetry_space_group_name_H-M    "P 1"
_symmetry_int_tables_number       1

loop_
  _symmetry_equiv_pos_as_xyz
  'x, y, z'

loop_
  _atom_site_label
  _atom_site_occupancy
  _atom_site_fract_x
  _atom_site_fract_y
  _atom_site_fract_z
  _atom_site_thermal_displace_type
  _atom_site_B_iso_or_equiv
  _atom_site_type_symbol
  Sr1      1.0000 0.12538  0.00289  0.12538  Biso   1.000  Sr
  Hf1      1.0000 0.12538  0.00288  0.62538  Biso   1.000  Hf
  Hf2      1.0000 0.62538  0.00288  0.12538  Biso   1.000  Hf
  Hf3      1.0000 0.62538  0.00288  0.62537  Biso   1.000  Hf
  Hf4      1.0000 0.12537  0.50289  0.37770  Biso   1.000  Hf
  Hf5      1.0000 0.12537  0.50288  0.87305  Biso   1.000  Hf
  Hf6      1.0000 0.62538  0.50288  0.37524  Biso   1.000  Hf
  Hf7      1.0000 0.62538  0.50288  0.87551  Biso   1.000  Hf
  Hf8      1.0000 0.37770  0.50288  0.12537  Biso   1.000  Hf
  Hf9      1.0000 0.37524  0.50288  0.62538  Biso   1.000  Hf
  Hf10     1.0000 0.87305  0.50288  0.12537  Biso   1.000  Hf
  Hf11     1.0000 0.87551  0.50288  0.62538  Biso   1.000  Hf
  Hf12     1.0000 0.37629  0.00544  0.37629  Biso   1.000  Hf
  Hf13     1.0000 0.37630  0.00032  0.87446  Biso   1.000  Hf
  Hf14     1.0000 0.87446  0.00032  0.37630  Biso   1.000  Hf
  Hf15     1.0000 0.87446  0.00543  0.87446  Biso   1.000  Hf
  Hf16     1.0000 0.99451  0.29548  0.99451  Biso   1.000  Hf
  Hf17     1.0000 0.00641  0.29538  0.51020  Biso   1.000  Hf
  Hf18     1.0000 0.51020  0.29538  0.00641  Biso   1.000  Hf
  Hf19     1.0000 0.50401  0.29799  0.50401  Biso   1.000  Hf
  Hf20     1.0000 0.98605  0.24388  0.26470  Biso   1.000  Hf
  Hf21     1.0000 0.99784  0.20941  0.75225  Biso   1.000  Hf
  Hf22     1.0000 0.49850  0.20939  0.25291  Biso   1.000  Hf
  Hf23     1.0000 0.49877  0.20920  0.75198  Biso   1.000  Hf
  Hf24     1.0000 0.99451  0.71028  0.25624  Biso   1.000  Hf
  Hf25     1.0000 0.00641  0.71037  0.74055  Biso   1.000  Hf
  Hf26     1.0000 0.51020  0.71035  0.24433  Biso   1.000  Hf
  Hf27     1.0000 0.50401  0.70778  0.74674  Biso   1.000  Hf
  Hf28     1.0000 0.98606  0.76190  0.98605  Biso   1.000  Hf
  Hf29     1.0000 0.99785  0.79634  0.49850  Biso   1.000  Hf
  Hf30     1.0000 0.49850  0.79634  0.99784  Biso   1.000  Hf
  Hf31     1.0000 0.49877  0.79656  0.49877  Biso   1.000  Hf
  Hf32     1.0000 0.25624  0.29550  0.25624  Biso   1.000  Hf
  Hf33     1.0000 0.24433  0.29540  0.74055  Biso   1.000  Hf
  Hf34     1.0000 0.74055  0.29541  0.24432  Biso   1.000  Hf
  Hf35     1.0000 0.74674  0.29798  0.74673  Biso   1.000  Hf
  Hf36     1.0000 0.26469  0.24388  0.98605  Biso   1.000  Hf
  Hf37     1.0000 0.25291  0.20939  0.49849  Biso   1.000  Hf
  Hf38     1.0000 0.75225  0.20941  0.99783  Biso   1.000  Hf
  Hf39     1.0000 0.75198  0.20920  0.49876  Biso   1.000  Hf
  Hf40     1.0000 0.25624  0.71028  0.99451  Biso   1.000  Hf
  Hf41     1.0000 0.24434  0.71036  0.51020  Biso   1.000  Hf
  Hf42     1.0000 0.74056  0.71037  0.00642  Biso   1.000  Hf
  Hf43     1.0000 0.74674  0.70778  0.50401  Biso   1.000  Hf
  Hf44     1.0000 0.26469  0.76190  0.26470  Biso   1.000  Hf
  Hf45     1.0000 0.25291  0.79637  0.75225  Biso   1.000  Hf
  Hf46     1.0000 0.75225  0.79636  0.25291  Biso   1.000  Hf
  Hf47     1.0000 0.75197  0.79657  0.75198  Biso   1.000  Hf
