data_image0
_cell_length_a       10.0029
_cell_length_b       10.3782
_cell_length_c       10.0516
_cell_angle_alpha    90.0831
_cell_angle_beta     90.1845
_cell_angle_gamma    89.9771

_symmetry_space_group_name_H-M    "P 1"
_symmetry_int_tables_number       1

loop_
  _symmetry_equiv_pos_as_xyz
  'x, y, z'

loop_
  _atom_site_label
  _atom_site_occupancy
  _atom_site_fract_x
  _atom_site_fract_y
  _atom_site_fract_z
  _atom_site_thermal_displace_type
  _atom_site_B_iso_or_equiv
  _atom_site_type_symbol
  Sr1      1.0000 0.12638  0.00956  0.12264  Biso   1.000  Sr
  Hf1      1.0000 0.13322  0.01703  0.62695  Biso   1.000  Hf
  Hf2      1.0000 0.13472  0.51591  0.12529  Biso   1.000  Hf
  Hf3      1.0000 0.13429  0.51685  0.62627  Biso   1.000  Hf
  Hf4      1.0000 0.63467  0.01546  0.12448  Biso   1.000  Hf
  Hf5      1.0000 0.63290  0.01673  0.62541  Biso   1.000  Hf
  Hf6      1.0000 0.63309  0.51516  0.12596  Biso   1.000  Hf
  Hf7      1.0000 0.63368  0.51544  0.62658  Biso   1.000  Hf
  Hf8      1.0000 0.13496  0.23418  0.37747  Biso   1.000  Hf
  Hf9      1.0000 0.13548  0.23473  0.87206  Biso   1.000  Hf
  Hf10     1.0000 0.13542  0.73355  0.37712  Biso   1.000  Hf
  Hf11     1.0000 0.13702  0.73353  0.87657  Biso   1.000  Hf
  Hf12     1.0000 0.63254  0.23330  0.37462  Biso   1.000  Hf
  Hf13     1.0000 0.63530  0.23285  0.87563  Biso   1.000  Hf
  Hf14     1.0000 0.63144  0.73249  0.37882  Biso   1.000  Hf
  Hf15     1.0000 0.63624  0.73251  0.87469  Biso   1.000  Hf
  Hf16     1.0000 0.36374  0.26508  0.12693  Biso   1.000  Hf
  Hf17     1.0000 0.36603  0.26564  0.62531  Biso   1.000  Hf
  Hf18     1.0000 0.36741  0.76378  0.12476  Biso   1.000  Hf
  Hf19     1.0000 0.36566  0.76763  0.62590  Biso   1.000  Hf
  Hf20     1.0000 0.86239  0.26728  0.12658  Biso   1.000  Hf
  Hf21     1.0000 0.86606  0.26763  0.62457  Biso   1.000  Hf
  Hf22     1.0000 0.86189  0.76399  0.12681  Biso   1.000  Hf
  Hf23     1.0000 0.86663  0.76489  0.62517  Biso   1.000  Hf
  Hf24     1.0000 0.36477  0.48292  0.37593  Biso   1.000  Hf
  Hf25     1.0000 0.36627  0.48249  0.87622  Biso   1.000  Hf
  Hf26     1.0000 0.36392  0.98446  0.37439  Biso   1.000  Hf
  Hf27     1.0000 0.36676  0.98403  0.87551  Biso   1.000  Hf
  Hf28     1.0000 0.86516  0.48427  0.37735  Biso   1.000  Hf
  Hf29     1.0000 0.86663  0.48272  0.87669  Biso   1.000  Hf
  Hf30     1.0000 0.86249  0.98323  0.38077  Biso   1.000  Hf
  Hf31     1.0000 0.86503  0.98217  0.87219  Biso   1.000  Hf
  Hf32     1.0000 0.02699  0.20051  0.20699  Biso   1.000  Hf
  Hf33     1.0000 0.04057  0.19036  0.68283  Biso   1.000  Hf
  Hf34     1.0000 0.03683  0.68704  0.19450  Biso   1.000  Hf
  Hf35     1.0000 0.03661  0.68447  0.69489  Biso   1.000  Hf
  Hf36     1.0000 0.53936  0.18560  0.19023  Biso   1.000  Hf
  Hf37     1.0000 0.53608  0.18407  0.69486  Biso   1.000  Hf
  Hf38     1.0000 0.53556  0.68101  0.19778  Biso   1.000  Hf
  Hf39     1.0000 0.53559  0.68307  0.69512  Biso   1.000  Hf
  Hf40     1.0000 0.03487  0.06514  0.44237  Biso   1.000  Hf
  Hf41     1.0000 0.03409  0.07168  0.91116  Biso   1.000  Hf
  Hf42     1.0000 0.03541  0.56615  0.44614  Biso   1.000  Hf
  Hf43     1.0000 0.03529  0.56815  0.94499  Biso   1.000  Hf
  Hf44     1.0000 0.53540  0.06603  0.44478  Biso   1.000  Hf
  Hf45     1.0000 0.53939  0.06549  0.94201  Biso   1.000  Hf
  Hf46     1.0000 0.53436  0.56502  0.44647  Biso   1.000  Hf
  Hf47     1.0000 0.53457  0.56703  0.94644  Biso   1.000  Hf
  Hf48     1.0000 0.46455  0.43277  0.19637  Biso   1.000  Hf
  Hf49     1.0000 0.46526  0.43325  0.69533  Biso   1.000  Hf
  Hf50     1.0000 0.46413  0.93587  0.19335  Biso   1.000  Hf
  Hf51     1.0000 0.46508  0.93354  0.69563  Biso   1.000  Hf
  Hf52     1.0000 0.96079  0.44053  0.19421  Biso   1.000  Hf
  Hf53     1.0000 0.96527  0.43499  0.69708  Biso   1.000  Hf
  Hf54     1.0000 0.93467  0.92864  0.20292  Biso   1.000  Hf
  Hf55     1.0000 0.96065  0.93404  0.68874  Biso   1.000  Hf
  Hf56     1.0000 0.46358  0.31540  0.44492  Biso   1.000  Hf
  Hf57     1.0000 0.46744  0.31801  0.94445  Biso   1.000  Hf
  Hf58     1.0000 0.46573  0.81736  0.44894  Biso   1.000  Hf
  Hf59     1.0000 0.47361  0.81860  0.94709  Biso   1.000  Hf
  Hf60     1.0000 0.96414  0.31991  0.44709  Biso   1.000  Hf
  Hf61     1.0000 0.96608  0.31796  0.94762  Biso   1.000  Hf
  Hf62     1.0000 0.96389  0.81462  0.44571  Biso   1.000  Hf
  Hf63     1.0000 0.96941  0.81986  0.94986  Biso   1.000  Hf
  Hf64     1.0000 0.28307  0.12998  0.25822  Biso   1.000  Hf
  Hf65     1.0000 0.27257  0.11801  0.74713  Biso   1.000  Hf
  Hf66     1.0000 0.26942  0.61310  0.24926  Biso   1.000  Hf
  Hf67     1.0000 0.27122  0.61802  0.74995  Biso   1.000  Hf
  Hf68     1.0000 0.76727  0.11702  0.25137  Biso   1.000  Hf
  Hf69     1.0000 0.77069  0.11778  0.74817  Biso   1.000  Hf
  Hf70     1.0000 0.76948  0.61725  0.24990  Biso   1.000  Hf
  Hf71     1.0000 0.77143  0.61619  0.74892  Biso   1.000  Hf
  Hf72     1.0000 0.26924  0.13083  0.50232  Biso   1.000  Hf
  Hf73     1.0000 0.27862  0.13824  0.99072  Biso   1.000  Hf
  Hf74     1.0000 0.27073  0.63275  0.49997  Biso   1.000  Hf
  Hf75     1.0000 0.27173  0.62794  0.00026  Biso   1.000  Hf
  Hf76     1.0000 0.76806  0.13431  0.50022  Biso   1.000  Hf
  Hf77     1.0000 0.77366  0.13128  0.99933  Biso   1.000  Hf
  Hf78     1.0000 0.76956  0.63161  0.49975  Biso   1.000  Hf
  Hf79     1.0000 0.76946  0.62996  0.99843  Biso   1.000  Hf
  Hf80     1.0000 0.23049  0.38329  0.50010  Biso   1.000  Hf
  Hf81     1.0000 0.23038  0.38269  0.99975  Biso   1.000  Hf
  Hf82     1.0000 0.22835  0.88344  0.50047  Biso   1.000  Hf
  Hf83     1.0000 0.24365  0.86935  0.99028  Biso   1.000  Hf
  Hf84     1.0000 0.72866  0.38285  0.49968  Biso   1.000  Hf
  Hf85     1.0000 0.72879  0.38245  0.99916  Biso   1.000  Hf
  Hf86     1.0000 0.72854  0.88116  0.50141  Biso   1.000  Hf
  Hf87     1.0000 0.73115  0.87992  0.99954  Biso   1.000  Hf
  Hf88     1.0000 0.22667  0.37003  0.24975  Biso   1.000  Hf
  Hf89     1.0000 0.23146  0.36893  0.74840  Biso   1.000  Hf
  Hf90     1.0000 0.24419  0.85457  0.25769  Biso   1.000  Hf
  Hf91     1.0000 0.22876  0.86865  0.74707  Biso   1.000  Hf
  Hf92     1.0000 0.72899  0.36849  0.25069  Biso   1.000  Hf
  Hf93     1.0000 0.73065  0.36736  0.74990  Biso   1.000  Hf
  Hf94     1.0000 0.71540  0.86558  0.25040  Biso   1.000  Hf
  Hf95     1.0000 0.72996  0.86618  0.74903  Biso   1.000  Hf
