data_image0
_cell_length_a       5.09966
_cell_length_b       10.3431
_cell_length_c       10.4982
_cell_angle_alpha    89.9598
_cell_angle_beta     80.3326
_cell_angle_gamma    90.3648

_symmetry_space_group_name_H-M    "P 1"
_symmetry_int_tables_number       1

loop_
  _symmetry_equiv_pos_as_xyz
  'x, y, z'

loop_
  _atom_site_label
  _atom_site_occupancy
  _atom_site_fract_x
  _atom_site_fract_y
  _atom_site_fract_z
  _atom_site_thermal_displace_type
  _atom_site_B_iso_or_equiv
  _atom_site_type_symbol
  Sr1      1.0000 0.27588  0.01005  0.14310  Biso   1.000  Sr
  Hf1      1.0000 0.28039  0.02167  0.64755  Biso   1.000  Hf
  Hf2      1.0000 0.27548  0.51747  0.14474  Biso   1.000  Hf
  Hf3      1.0000 0.27999  0.52088  0.64557  Biso   1.000  Hf
  Hf4      1.0000 0.27527  0.22901  0.39818  Biso   1.000  Hf
  Hf5      1.0000 0.27807  0.23065  0.89599  Biso   1.000  Hf
  Hf6      1.0000 0.27486  0.72334  0.39723  Biso   1.000  Hf
  Hf7      1.0000 0.28932  0.72915  0.89291  Biso   1.000  Hf
  Hf8      1.0000 0.71261  0.26868  0.10332  Biso   1.000  Hf
  Hf9      1.0000 0.72119  0.27139  0.60475  Biso   1.000  Hf
  Hf10     1.0000 0.72325  0.76248  0.10153  Biso   1.000  Hf
  Hf11     1.0000 0.72288  0.77285  0.60257  Biso   1.000  Hf
  Hf12     1.0000 0.71694  0.47685  0.35276  Biso   1.000  Hf
  Hf13     1.0000 0.72303  0.47850  0.85239  Biso   1.000  Hf
  Hf14     1.0000 0.71255  0.98253  0.35968  Biso   1.000  Hf
  Hf15     1.0000 0.72589  0.97881  0.85475  Biso   1.000  Hf
  O1       1.0000 0.06645  0.18786  0.07549  Biso   1.000  O
  O2       1.0000 0.06976  0.17227  0.58741  Biso   1.000  O
  O3       1.0000 0.08020  0.67128  0.08038  Biso   1.000  O
  O4       1.0000 0.06901  0.66757  0.58069  Biso   1.000  O
  O5       1.0000 0.05553  0.08116  0.35171  Biso   1.000  O
  O6       1.0000 0.07691  0.08068  0.83124  Biso   1.000  O
  O7       1.0000 0.06420  0.58078  0.32870  Biso   1.000  O
  O8       1.0000 0.07137  0.58228  0.82772  Biso   1.000  O
  O9       1.0000 0.91997  0.42053  0.16909  Biso   1.000  O
  O10      1.0000 0.93056  0.42003  0.66787  Biso   1.000  O
  O11      1.0000 0.85294  0.92895  0.16708  Biso   1.000  O
  O12      1.0000 0.93354  0.91680  0.67177  Biso   1.000  O
  O13      1.0000 0.92655  0.33240  0.42125  Biso   1.000  O
  O14      1.0000 0.93149  0.33616  0.91428  Biso   1.000  O
  O15      1.0000 0.93447  0.83186  0.41924  Biso   1.000  O
  O16      1.0000 0.95616  0.83672  0.92141  Biso   1.000  O
  O17      1.0000 0.56459  0.13944  0.25393  Biso   1.000  O
  O18      1.0000 0.55503  0.12869  0.73927  Biso   1.000  O
  O19      1.0000 0.54861  0.62114  0.23846  Biso   1.000  O
  O20      1.0000 0.55509  0.63017  0.73789  Biso   1.000  O
  O21      1.0000 0.54388  0.12221  0.49638  Biso   1.000  O
  O22      1.0000 0.57143  0.12863  0.97946  Biso   1.000  O
  O23      1.0000 0.55095  0.62050  0.48972  Biso   1.000  O
  O24      1.0000 0.55375  0.61525  0.98872  Biso   1.000  O
  O25      1.0000 0.44674  0.37969  0.00748  Biso   1.000  O
  O26      1.0000 0.44695  0.37950  0.50959  Biso   1.000  O
  O27      1.0000 0.48367  0.86241  0.99354  Biso   1.000  O
  O28      1.0000 0.44949  0.87954  0.51184  Biso   1.000  O
  O29      1.0000 0.43551  0.37239  0.25964  Biso   1.000  O
  O30      1.0000 0.44968  0.37232  0.75752  Biso   1.000  O
  O31      1.0000 0.46512  0.85455  0.26879  Biso   1.000  O
  O32      1.0000 0.45278  0.87198  0.75539  Biso   1.000  O
