data_image0
_cell_length_a       10.128
_cell_length_b       5.23116
_cell_length_c       10.1923
_cell_angle_alpha    84.6407
_cell_angle_beta     89.1137
_cell_angle_gamma    88.7253

_symmetry_space_group_name_H-M    "P 1"
_symmetry_int_tables_number       1

loop_
  _symmetry_equiv_pos_as_xyz
  'x, y, z'

loop_
  _atom_site_label
  _atom_site_occupancy
  _atom_site_fract_x
  _atom_site_fract_y
  _atom_site_fract_z
  _atom_site_thermal_displace_type
  _atom_site_B_iso_or_equiv
  _atom_site_type_symbol
  Hf1      1.0000 0.14749  0.08216  0.11685  Biso   1.000  Hf
  Hf2      1.0000 0.14328  0.45746  0.39302  Biso   1.000  Hf
  Hf3      1.0000 0.41827  0.49626  0.07931  Biso   1.000  Hf
  Hf4      1.0000 0.37708  0.98886  0.35137  Biso   1.000  Hf
  Hf5      1.0000 0.00056  0.30309  0.21816  Biso   1.000  Hf
  Hf6      1.0000 0.04010  0.11765  0.45337  Biso   1.000  Hf
  Hf7      1.0000 0.49447  0.74542  0.20847  Biso   1.000  Hf
  Hf8      1.0000 0.44339  0.63953  0.45178  Biso   1.000  Hf
  Hf9      1.0000 0.25814  0.30468  0.23334  Biso   1.000  Hf
  Hf10     1.0000 0.27641  0.19327  0.48665  Biso   1.000  Hf
  Hf11     1.0000 0.20168  0.67060  0.53982  Biso   1.000  Hf
  Hf12     1.0000 0.20310  0.80909  0.28064  Biso   1.000  Hf
  Hf13     1.0000 0.13987  0.00426  0.62296  Biso   1.000  Hf
  Hf14     1.0000 0.10120  0.45754  0.81616  Biso   1.000  Hf
  Hf15     1.0000 0.37553  0.55359  0.63960  Biso   1.000  Hf
  Hf16     1.0000 0.38368  0.01368  0.86038  Biso   1.000  Hf
  Hf17     1.0000 0.01122  0.30750  0.67300  Biso   1.000  Hf
  Hf18     1.0000 0.04583  0.10764  0.93377  Biso   1.000  Hf
  Hf19     1.0000 0.46944  0.86474  0.68379  Biso   1.000  Hf
  Hf20     1.0000 0.49276  0.67861  0.91664  Biso   1.000  Hf
  Hf21     1.0000 0.25518  0.23897  0.73159  Biso   1.000  Hf
  Hf22     1.0000 0.26375  0.32998  0.97148  Biso   1.000  Hf
  Hf23     1.0000 0.30279  0.85775  0.03610  Biso   1.000  Hf
  Hf24     1.0000 0.24432  0.74108  0.77539  Biso   1.000  Hf
  Hf25     1.0000 0.64251  0.02084  0.13419  Biso   1.000  Hf
  Hf26     1.0000 0.59430  0.46515  0.35148  Biso   1.000  Hf
  Hf27     1.0000 0.83812  0.51064  0.13390  Biso   1.000  Hf
  Hf28     1.0000 0.90228  0.97344  0.34346  Biso   1.000  Hf
  Hf29     1.0000 0.49495  0.23023  0.22739  Biso   1.000  Hf
  Hf30     1.0000 0.53269  0.12024  0.45533  Biso   1.000  Hf
  Hf31     1.0000 0.95685  0.84583  0.16420  Biso   1.000  Hf
  Hf32     1.0000 0.96207  0.61499  0.43304  Biso   1.000  Hf
  Hf33     1.0000 0.74907  0.22287  0.26623  Biso   1.000  Hf
  Hf34     1.0000 0.69999  0.42124  0.52089  Biso   1.000  Hf
  Hf35     1.0000 0.78843  0.91666  0.51390  Biso   1.000  Hf
  Hf36     1.0000 0.73682  0.72717  0.26637  Biso   1.000  Hf
  Hf37     1.0000 0.63960  0.06332  0.62217  Biso   1.000  Hf
  Hf38     1.0000 0.65168  0.45711  0.87949  Biso   1.000  Hf
  Hf39     1.0000 0.85354  0.56411  0.60772  Biso   1.000  Hf
  Hf40     1.0000 0.87324  0.94991  0.87697  Biso   1.000  Hf
  Hf41     1.0000 0.51540  0.31739  0.73663  Biso   1.000  Hf
  Hf42     1.0000 0.52149  0.17258  0.97975  Biso   1.000  Hf
  Hf43     1.0000 0.98940  0.78714  0.71708  Biso   1.000  Hf
  Hf44     1.0000 0.95710  0.58813  0.94512  Biso   1.000  Hf
  Hf45     1.0000 0.77163  0.23606  0.75341  Biso   1.000  Hf
  Hf46     1.0000 0.78280  0.22859  0.00623  Biso   1.000  Hf
  Hf47     1.0000 0.73016  0.76103  0.00004  Biso   1.000  Hf
  Hf48     1.0000 0.73290  0.74390  0.74875  Biso   1.000  Hf
  Sr1      1.0000 0.12873  0.60032  0.08938  Biso   1.000  Sr
