data_image0
_cell_length_a       10.1354
_cell_length_b       5.15579
_cell_length_c       10.1354
_cell_angle_alpha    90.0002
_cell_angle_beta     89.9999
_cell_angle_gamma    89.9999

_symmetry_space_group_name_H-M    "P 1"
_symmetry_int_tables_number       1

loop_
  _symmetry_equiv_pos_as_xyz
  'x, y, z'

loop_
  _atom_site_label
  _atom_site_occupancy
  _atom_site_fract_x
  _atom_site_fract_y
  _atom_site_fract_z
  _atom_site_thermal_displace_type
  _atom_site_B_iso_or_equiv
  _atom_site_type_symbol
  Hf1      1.0000 0.12491  0.00011  0.12491  Biso   1.000  Hf
  Hf2      1.0000 0.12491  0.50011  0.39941  Biso   1.000  Hf
  Hf3      1.0000 0.39941  0.50011  0.12491  Biso   1.000  Hf
  Hf4      1.0000 0.37292  0.00716  0.37292  Biso   1.000  Hf
  Hf5      1.0000 0.98056  0.30627  0.98056  Biso   1.000  Hf
  Hf6      1.0000 0.00194  0.19292  0.24787  Biso   1.000  Hf
  Hf7      1.0000 0.98056  0.69394  0.26926  Biso   1.000  Hf
  Hf8      1.0000 0.00194  0.80730  0.00195  Biso   1.000  Hf
  Hf9      1.0000 0.26926  0.30628  0.26926  Biso   1.000  Hf
  Hf10     1.0000 0.24788  0.19291  0.00195  Biso   1.000  Hf
  Hf11     1.0000 0.26926  0.69394  0.98056  Biso   1.000  Hf
  Hf12     1.0000 0.24788  0.80730  0.24787  Biso   1.000  Hf
  Hf13     1.0000 0.12491  0.00011  0.62491  Biso   1.000  Hf
  Hf14     1.0000 0.12491  0.50011  0.85040  Biso   1.000  Hf
  Hf15     1.0000 0.37940  0.50011  0.62491  Biso   1.000  Hf
  Hf16     1.0000 0.37292  0.99306  0.87690  Biso   1.000  Hf
  Hf17     1.0000 0.98824  0.28289  0.49651  Biso   1.000  Hf
  Hf18     1.0000 0.00621  0.21331  0.74285  Biso   1.000  Hf
  Hf19     1.0000 0.98824  0.71733  0.75330  Biso   1.000  Hf
  Hf20     1.0000 0.00621  0.78690  0.50697  Biso   1.000  Hf
  Hf21     1.0000 0.26157  0.28289  0.75331  Biso   1.000  Hf
  Hf22     1.0000 0.24361  0.21332  0.50697  Biso   1.000  Hf
  Hf23     1.0000 0.26158  0.71732  0.49651  Biso   1.000  Hf
  Hf24     1.0000 0.24360  0.78690  0.74285  Biso   1.000  Hf
  Hf25     1.0000 0.62491  0.00011  0.12491  Biso   1.000  Hf
  Hf26     1.0000 0.62491  0.50011  0.37940  Biso   1.000  Hf
  Hf27     1.0000 0.85041  0.50011  0.12491  Biso   1.000  Hf
  Hf28     1.0000 0.87690  0.99305  0.37292  Biso   1.000  Hf
  Hf29     1.0000 0.49652  0.28290  0.98824  Biso   1.000  Hf
  Hf30     1.0000 0.50697  0.21332  0.24360  Biso   1.000  Hf
  Hf31     1.0000 0.49651  0.71732  0.26158  Biso   1.000  Hf
  Hf32     1.0000 0.50697  0.78690  0.00621  Biso   1.000  Hf
  Hf33     1.0000 0.75330  0.28289  0.26158  Biso   1.000  Hf
  Hf34     1.0000 0.74285  0.21331  0.00621  Biso   1.000  Hf
  Hf35     1.0000 0.75330  0.71732  0.98824  Biso   1.000  Hf
  Hf36     1.0000 0.74285  0.78690  0.24360  Biso   1.000  Hf
  Hf37     1.0000 0.62491  0.00011  0.62490  Biso   1.000  Hf
  Hf38     1.0000 0.62491  0.50011  0.87042  Biso   1.000  Hf
  Hf39     1.0000 0.87042  0.50011  0.62491  Biso   1.000  Hf
  Hf40     1.0000 0.87689  0.00715  0.87689  Biso   1.000  Hf
  Hf41     1.0000 0.49136  0.29636  0.49136  Biso   1.000  Hf
  Hf42     1.0000 0.50608  0.20802  0.74373  Biso   1.000  Hf
  Hf43     1.0000 0.49136  0.70386  0.75846  Biso   1.000  Hf
  Hf44     1.0000 0.50608  0.79219  0.50608  Biso   1.000  Hf
  Hf45     1.0000 0.75846  0.29635  0.75846  Biso   1.000  Hf
  Hf46     1.0000 0.74374  0.20802  0.50608  Biso   1.000  Hf
  Hf47     1.0000 0.75846  0.70386  0.49136  Biso   1.000  Hf
  Hf48     1.0000 0.74373  0.79219  0.74373  Biso   1.000  Hf
  Sr1      1.0000 0.12491  0.50010  0.12491  Biso   1.000  Sr
