data_image0
_cell_length_a       10.0498
_cell_length_b       5.27266
_cell_length_c       10.1308
_cell_angle_alpha    89.2044
_cell_angle_beta     89.151
_cell_angle_gamma    90.1428

_symmetry_space_group_name_H-M    "P 1"
_symmetry_int_tables_number       1

loop_
  _symmetry_equiv_pos_as_xyz
  'x, y, z'

loop_
  _atom_site_label
  _atom_site_occupancy
  _atom_site_fract_x
  _atom_site_fract_y
  _atom_site_fract_z
  _atom_site_thermal_displace_type
  _atom_site_B_iso_or_equiv
  _atom_site_type_symbol
  Hf1      1.0000 0.12155  0.13034  0.10846  Biso   1.000  Hf
  Hf2      1.0000 0.13718  0.44404  0.38989  Biso   1.000  Hf
  Hf3      1.0000 0.38555  0.54249  0.12155  Biso   1.000  Hf
  Hf4      1.0000 0.36523  0.95250  0.37611  Biso   1.000  Hf
  Hf5      1.0000 0.00672  0.37898  0.23216  Biso   1.000  Hf
  Hf6      1.0000 0.03907  0.10835  0.45036  Biso   1.000  Hf
  Hf7      1.0000 0.47494  0.85848  0.20515  Biso   1.000  Hf
  Hf8      1.0000 0.47000  0.62171  0.45389  Biso   1.000  Hf
  Hf9      1.0000 0.26229  0.19426  0.25414  Biso   1.000  Hf
  Hf10     1.0000 0.27590  0.24522  0.50525  Biso   1.000  Hf
  Hf11     1.0000 0.23229  0.74809  0.50576  Biso   1.000  Hf
  Hf12     1.0000 0.24961  0.67754  0.26215  Biso   1.000  Hf
  Hf13     1.0000 0.13526  0.00926  0.62737  Biso   1.000  Hf
  Hf14     1.0000 0.11618  0.45685  0.84763  Biso   1.000  Hf
  Hf15     1.0000 0.36852  0.51734  0.62728  Biso   1.000  Hf
  Hf16     1.0000 0.38027  0.97060  0.86502  Biso   1.000  Hf
  Hf17     1.0000 0.03263  0.34682  0.67058  Biso   1.000  Hf
  Hf18     1.0000 0.02884  0.12687  0.92070  Biso   1.000  Hf
  Hf19     1.0000 0.47194  0.84363  0.69272  Biso   1.000  Hf
  Hf20     1.0000 0.47528  0.64827  0.94171  Biso   1.000  Hf
  Hf21     1.0000 0.26418  0.21747  0.75099  Biso   1.000  Hf
  Hf22     1.0000 0.25057  0.38241  0.99483  Biso   1.000  Hf
  Hf23     1.0000 0.25864  0.87217  0.01547  Biso   1.000  Hf
  Hf24     1.0000 0.23776  0.72265  0.75413  Biso   1.000  Hf
  Hf25     1.0000 0.63533  0.02950  0.12910  Biso   1.000  Hf
  Hf26     1.0000 0.63291  0.45834  0.37566  Biso   1.000  Hf
  Hf27     1.0000 0.85009  0.52871  0.12279  Biso   1.000  Hf
  Hf28     1.0000 0.87368  0.96286  0.37135  Biso   1.000  Hf
  Hf29     1.0000 0.53648  0.35520  0.20348  Biso   1.000  Hf
  Hf30     1.0000 0.53399  0.12387  0.44843  Biso   1.000  Hf
  Hf31     1.0000 0.96905  0.87654  0.19220  Biso   1.000  Hf
  Hf32     1.0000 0.96869  0.63380  0.44831  Biso   1.000  Hf
  Hf33     1.0000 0.76469  0.21986  0.24881  Biso   1.000  Hf
  Hf34     1.0000 0.76934  0.26340  0.49553  Biso   1.000  Hf
  Hf35     1.0000 0.73512  0.76446  0.49810  Biso   1.000  Hf
  Hf36     1.0000 0.73076  0.72982  0.25251  Biso   1.000  Hf
  Hf37     1.0000 0.63570  0.02238  0.61866  Biso   1.000  Hf
  Hf38     1.0000 0.63408  0.45772  0.87238  Biso   1.000  Hf
  Hf39     1.0000 0.86405  0.52730  0.61747  Biso   1.000  Hf
  Hf40     1.0000 0.85910  0.95764  0.87026  Biso   1.000  Hf
  Hf41     1.0000 0.52880  0.33766  0.70580  Biso   1.000  Hf
  Hf42     1.0000 0.52528  0.15296  0.96032  Biso   1.000  Hf
  Hf43     1.0000 0.96973  0.83597  0.70179  Biso   1.000  Hf
  Hf44     1.0000 0.96443  0.64422  0.95188  Biso   1.000  Hf
  Hf45     1.0000 0.76804  0.22166  0.74390  Biso   1.000  Hf
  Hf46     1.0000 0.76851  0.26021  0.99465  Biso   1.000  Hf
  Hf47     1.0000 0.72337  0.76487  0.99843  Biso   1.000  Hf
  Hf48     1.0000 0.73064  0.72224  0.74731  Biso   1.000  Hf
  Ta1      1.0000 0.11385  0.63171  0.10468  Biso   1.000  Ta
