data_image0
_cell_length_a       10.0057
_cell_length_b       10.1693
_cell_length_c       5.00402
_cell_angle_alpha    89.9996
_cell_angle_beta     90
_cell_angle_gamma    90

_symmetry_space_group_name_H-M    "P 1"
_symmetry_int_tables_number       1

loop_
  _symmetry_equiv_pos_as_xyz
  'x, y, z'

loop_
  _atom_site_label
  _atom_site_occupancy
  _atom_site_fract_x
  _atom_site_fract_y
  _atom_site_fract_z
  _atom_site_thermal_displace_type
  _atom_site_B_iso_or_equiv
  _atom_site_type_symbol
  Ta1      1.0000 0.12491  0.00005  0.24982  Biso   1.000  Ta
  Hf1      1.0000 0.12491  0.25002  0.74982  Biso   1.000  Hf
  Hf2      1.0000 0.37460  0.24975  0.25223  Biso   1.000  Hf
  Hf3      1.0000 0.37578  0.00005  0.74982  Biso   1.000  Hf
  Hf4      1.0000 0.99557  0.14620  0.98847  Biso   1.000  Hf
  Hf5      1.0000 0.00418  0.09975  0.49026  Biso   1.000  Hf
  Hf6      1.0000 0.99815  0.35152  0.50292  Biso   1.000  Hf
  Hf7      1.0000 0.00092  0.39738  0.00154  Biso   1.000  Hf
  Hf8      1.0000 0.25425  0.14620  0.51117  Biso   1.000  Hf
  Hf9      1.0000 0.24564  0.09975  0.00937  Biso   1.000  Hf
  Hf10     1.0000 0.25166  0.35152  0.99672  Biso   1.000  Hf
  Hf11     1.0000 0.24890  0.39738  0.49810  Biso   1.000  Hf
  Hf12     1.0000 0.12491  0.50005  0.24982  Biso   1.000  Hf
  Hf13     1.0000 0.12491  0.75009  0.74982  Biso   1.000  Hf
  Hf14     1.0000 0.37461  0.75035  0.24740  Biso   1.000  Hf
  Hf15     1.0000 0.37568  0.50005  0.74982  Biso   1.000  Hf
  Hf16     1.0000 0.99816  0.64858  0.99672  Biso   1.000  Hf
  Hf17     1.0000 0.00092  0.60273  0.49809  Biso   1.000  Hf
  Hf18     1.0000 0.99557  0.85391  0.51116  Biso   1.000  Hf
  Hf19     1.0000 0.00418  0.90035  0.00938  Biso   1.000  Hf
  Hf20     1.0000 0.25166  0.64858  0.50292  Biso   1.000  Hf
  Hf21     1.0000 0.24889  0.60273  0.00154  Biso   1.000  Hf
  Hf22     1.0000 0.25425  0.85391  0.98847  Biso   1.000  Hf
  Hf23     1.0000 0.24563  0.90035  0.49026  Biso   1.000  Hf
  Hf24     1.0000 0.62491  0.00005  0.24982  Biso   1.000  Hf
  Hf25     1.0000 0.62491  0.24981  0.74982  Biso   1.000  Hf
  Hf26     1.0000 0.87521  0.24975  0.24740  Biso   1.000  Hf
  Hf27     1.0000 0.87404  0.00005  0.74982  Biso   1.000  Hf
  Hf28     1.0000 0.49395  0.14685  0.99055  Biso   1.000  Hf
  Hf29     1.0000 0.50317  0.10388  0.49536  Biso   1.000  Hf
  Hf30     1.0000 0.49810  0.35330  0.50315  Biso   1.000  Hf
  Hf31     1.0000 0.50109  0.39676  0.00162  Biso   1.000  Hf
  Hf32     1.0000 0.75587  0.14685  0.50909  Biso   1.000  Hf
  Hf33     1.0000 0.74665  0.10388  0.00427  Biso   1.000  Hf
  Hf34     1.0000 0.75172  0.35330  0.99648  Biso   1.000  Hf
  Hf35     1.0000 0.74873  0.39676  0.49802  Biso   1.000  Hf
  Hf36     1.0000 0.62491  0.50005  0.24982  Biso   1.000  Hf
  Hf37     1.0000 0.62491  0.75030  0.74982  Biso   1.000  Hf
  Hf38     1.0000 0.87521  0.75035  0.25223  Biso   1.000  Hf
  Hf39     1.0000 0.87414  0.50005  0.74982  Biso   1.000  Hf
  Hf40     1.0000 0.49810  0.64681  0.99648  Biso   1.000  Hf
  Hf41     1.0000 0.50109  0.60335  0.49801  Biso   1.000  Hf
  Hf42     1.0000 0.49395  0.85326  0.50909  Biso   1.000  Hf
  Hf43     1.0000 0.50317  0.89623  0.00428  Biso   1.000  Hf
  Hf44     1.0000 0.75172  0.64681  0.50315  Biso   1.000  Hf
  Hf45     1.0000 0.74873  0.60335  0.00162  Biso   1.000  Hf
  Hf46     1.0000 0.75587  0.85326  0.99055  Biso   1.000  Hf
  Hf47     1.0000 0.74665  0.89623  0.49536  Biso   1.000  Hf
