data_image0
_cell_length_a       10.1002
_cell_length_b       10.2423
_cell_length_c       5.3019
_cell_angle_alpha    90.2238
_cell_angle_beta     90.8437
_cell_angle_gamma    89.7762

_symmetry_space_group_name_H-M    "P 1"
_symmetry_int_tables_number       1

loop_
  _symmetry_equiv_pos_as_xyz
  'x, y, z'

loop_
  _atom_site_label
  _atom_site_occupancy
  _atom_site_fract_x
  _atom_site_fract_y
  _atom_site_fract_z
  _atom_site_thermal_displace_type
  _atom_site_B_iso_or_equiv
  _atom_site_type_symbol
  Hf1      1.0000 0.13956  0.02252  0.34760  Biso   1.000  Hf
  Hf2      1.0000 0.14400  0.22844  0.84573  Biso   1.000  Hf
  Hf3      1.0000 0.36111  0.26653  0.35692  Biso   1.000  Hf
  Hf4      1.0000 0.35898  0.48018  0.84612  Biso   1.000  Hf
  Hf5      1.0000 0.63600  0.99466  0.16201  Biso   1.000  Hf
  Hf6      1.0000 0.63108  0.22578  0.64523  Biso   1.000  Hf
  Hf7      1.0000 0.87796  0.27697  0.14626  Biso   1.000  Hf
  Hf8      1.0000 0.86384  0.47995  0.65331  Biso   1.000  Hf
  O1       1.0000 0.03418  0.15677  0.14877  Biso   1.000  O
  O2       1.0000 0.02741  0.09578  0.65069  Biso   1.000  O
  O3       1.0000 0.47664  0.40858  0.15884  Biso   1.000  O
  O4       1.0000 0.46609  0.34152  0.66834  Biso   1.000  O
  O5       1.0000 0.27301  0.12424  0.60036  Biso   1.000  O
  O6       1.0000 0.27575  0.12271  0.09770  Biso   1.000  O
  O7       1.0000 0.22154  0.37624  0.60013  Biso   1.000  O
  O8       1.0000 0.22693  0.37674  0.09499  Biso   1.000  O
  O9       1.0000 0.51229  0.11993  0.38678  Biso   1.000  O
  O10      1.0000 0.52068  0.10653  0.89397  Biso   1.000  O
  O11      1.0000 0.97275  0.41602  0.34526  Biso   1.000  O
  O12      1.0000 0.97575  0.34277  0.83589  Biso   1.000  O
  O13      1.0000 0.76792  0.12507  0.90367  Biso   1.000  O
  O14      1.0000 0.76364  0.13159  0.37919  Biso   1.000  O
  O15      1.0000 0.72895  0.37938  0.90945  Biso   1.000  O
  O16      1.0000 0.72210  0.38004  0.39942  Biso   1.000  O
  Hf9      1.0000 0.14271  0.52146  0.34902  Biso   1.000  Hf
  Hf10     1.0000 0.13887  0.73029  0.84744  Biso   1.000  Hf
  Hf11     1.0000 0.35976  0.77081  0.35098  Biso   1.000  Hf
  Hf12     1.0000 0.36127  0.97823  0.85143  Biso   1.000  Hf
  Hf13     1.0000 0.64296  0.53313  0.15010  Biso   1.000  Hf
  Hf14     1.0000 0.63914  0.72832  0.65469  Biso   1.000  Hf
  Hf15     1.0000 0.86864  0.77187  0.15779  Biso   1.000  Hf
  Hf16     1.0000 0.86299  0.98329  0.65731  Biso   1.000  Hf
  O17      1.0000 0.03460  0.66232  0.16027  Biso   1.000  O
  O18      1.0000 0.03123  0.59243  0.65975  Biso   1.000  O
  O19      1.0000 0.46974  0.88836  0.13361  Biso   1.000  O
  O20      1.0000 0.47602  0.85037  0.64194  Biso   1.000  O
  O21      1.0000 0.27605  0.62566  0.59758  Biso   1.000  O
  O22      1.0000 0.27662  0.62544  0.09687  Biso   1.000  O
  O23      1.0000 0.22509  0.87351  0.59781  Biso   1.000  O
  O24      1.0000 0.22371  0.87677  0.09882  Biso   1.000  O
  O25      1.0000 0.52929  0.65762  0.35224  Biso   1.000  O
  O26      1.0000 0.52886  0.59515  0.84682  Biso   1.000  O
  O27      1.0000 0.96964  0.91406  0.34415  Biso   1.000  O
  O28      1.0000 0.97118  0.84444  0.84416  Biso   1.000  O
  O29      1.0000 0.77928  0.62672  0.90296  Biso   1.000  O
  O30      1.0000 0.77860  0.62822  0.40517  Biso   1.000  O
  O31      1.0000 0.72850  0.87083  0.90894  Biso   1.000  O
  O32      1.0000 0.73240  0.87045  0.41804  Biso   1.000  O
  Ta1      1.0000 0.61355  0.25162  0.14602  Biso   1.000  Ta
