data_image0
_cell_length_a       10.0719
_cell_length_b       5.11189
_cell_length_c       10.0884
_cell_angle_alpha    90
_cell_angle_beta     90
_cell_angle_gamma    90.0001

_symmetry_space_group_name_H-M    "P 1"
_symmetry_int_tables_number       1

loop_
  _symmetry_equiv_pos_as_xyz
  'x, y, z'

loop_
  _atom_site_label
  _atom_site_occupancy
  _atom_site_fract_x
  _atom_site_fract_y
  _atom_site_fract_z
  _atom_site_thermal_displace_type
  _atom_site_B_iso_or_equiv
  _atom_site_type_symbol
  Hf1      1.0000 0.12458  0.99972  0.12498  Biso   1.000  Hf
  Hf2      1.0000 0.12458  0.49972  0.39369  Biso   1.000  Hf
  Hf3      1.0000 0.39668  0.49972  0.12498  Biso   1.000  Hf
  Hf4      1.0000 0.37194  0.99926  0.37348  Biso   1.000  Hf
  Hf5      1.0000 0.99718  0.27428  0.99533  Biso   1.000  Hf
  Hf6      1.0000 0.00334  0.23634  0.24440  Biso   1.000  Hf
  Hf7      1.0000 0.99718  0.72516  0.25463  Biso   1.000  Hf
  Hf8      1.0000 0.00334  0.76310  0.00556  Biso   1.000  Hf
  Hf9      1.0000 0.25198  0.27429  0.25463  Biso   1.000  Hf
  Hf10     1.0000 0.24581  0.23634  0.00556  Biso   1.000  Hf
  Hf11     1.0000 0.25198  0.72516  0.99533  Biso   1.000  Hf
  Hf12     1.0000 0.24582  0.76310  0.24440  Biso   1.000  Hf
  Hf13     1.0000 0.12458  0.99972  0.62498  Biso   1.000  Hf
  Hf14     1.0000 0.12458  0.49971  0.85628  Biso   1.000  Hf
  Hf15     1.0000 0.37983  0.49972  0.62498  Biso   1.000  Hf
  Hf16     1.0000 0.37194  0.00018  0.87648  Biso   1.000  Hf
  Hf17     1.0000 0.98782  0.27752  0.49571  Biso   1.000  Hf
  Hf18     1.0000 0.00611  0.21810  0.74539  Biso   1.000  Hf
  Hf19     1.0000 0.98782  0.72191  0.75425  Biso   1.000  Hf
  Hf20     1.0000 0.00611  0.78133  0.50458  Biso   1.000  Hf
  Hf21     1.0000 0.26133  0.27752  0.75425  Biso   1.000  Hf
  Hf22     1.0000 0.24305  0.21812  0.50458  Biso   1.000  Hf
  Hf23     1.0000 0.26133  0.72192  0.49571  Biso   1.000  Hf
  Hf24     1.0000 0.24304  0.78133  0.74539  Biso   1.000  Hf
  Hf25     1.0000 0.62458  0.99972  0.12498  Biso   1.000  Hf
  Hf26     1.0000 0.62458  0.49972  0.37692  Biso   1.000  Hf
  Hf27     1.0000 0.85248  0.49971  0.12498  Biso   1.000  Hf
  Hf28     1.0000 0.87722  0.00018  0.37348  Biso   1.000  Hf
  Hf29     1.0000 0.49507  0.27420  0.98496  Biso   1.000  Hf
  Hf30     1.0000 0.50065  0.21529  0.24233  Biso   1.000  Hf
  Hf31     1.0000 0.49507  0.72524  0.26500  Biso   1.000  Hf
  Hf32     1.0000 0.50066  0.78415  0.00762  Biso   1.000  Hf
  Hf33     1.0000 0.75408  0.27419  0.26500  Biso   1.000  Hf
  Hf34     1.0000 0.74850  0.21528  0.00762  Biso   1.000  Hf
  Hf35     1.0000 0.75408  0.72524  0.98496  Biso   1.000  Hf
  Hf36     1.0000 0.74850  0.78415  0.24234  Biso   1.000  Hf
  Hf37     1.0000 0.62458  0.99972  0.62498  Biso   1.000  Hf
  Hf38     1.0000 0.62458  0.49972  0.87304  Biso   1.000  Hf
  Hf39     1.0000 0.86932  0.49972  0.62498  Biso   1.000  Hf
  Hf40     1.0000 0.87722  0.99926  0.87647  Biso   1.000  Hf
  Hf41     1.0000 0.48830  0.28534  0.48687  Biso   1.000  Hf
  Hf42     1.0000 0.50472  0.21514  0.74111  Biso   1.000  Hf
  Hf43     1.0000 0.48830  0.71410  0.76309  Biso   1.000  Hf
  Hf44     1.0000 0.50472  0.78430  0.50885  Biso   1.000  Hf
  Hf45     1.0000 0.76086  0.28534  0.76309  Biso   1.000  Hf
  Hf46     1.0000 0.74444  0.21514  0.50884  Biso   1.000  Hf
  Hf47     1.0000 0.76086  0.71410  0.48687  Biso   1.000  Hf
  Hf48     1.0000 0.74443  0.78429  0.74111  Biso   1.000  Hf
  Ta1      1.0000 0.12458  0.49972  0.12498  Biso   1.000  Ta
