data_image0
_cell_length_a       5.02735
_cell_length_b       10.4614
_cell_length_c       10.0779
_cell_angle_alpha    89.6893
_cell_angle_beta     90.07
_cell_angle_gamma    90.1242

_symmetry_space_group_name_H-M    "P 1"
_symmetry_int_tables_number       1

loop_
  _symmetry_equiv_pos_as_xyz
  'x, y, z'

loop_
  _atom_site_label
  _atom_site_occupancy
  _atom_site_fract_x
  _atom_site_fract_y
  _atom_site_fract_z
  _atom_site_thermal_displace_type
  _atom_site_B_iso_or_equiv
  _atom_site_type_symbol
  Hf1      1.0000 0.26181  0.01825  0.11800  Biso   1.000  Hf
  Hf2      1.0000 0.26438  0.22756  0.38787  Biso   1.000  Hf
  Hf3      1.0000 0.69614  0.25325  0.12339  Biso   1.000  Hf
  Hf4      1.0000 0.73701  0.48305  0.37570  Biso   1.000  Hf
  Hf5      1.0000 0.00869  0.17338  0.23087  Biso   1.000  Hf
  Hf6      1.0000 0.07218  0.06152  0.45501  Biso   1.000  Hf
  Hf7      1.0000 0.91552  0.43901  0.19488  Biso   1.000  Hf
  Hf8      1.0000 0.93860  0.32170  0.45330  Biso   1.000  Hf
  Hf9      1.0000 0.50819  0.10943  0.25280  Biso   1.000  Hf
  Hf10     1.0000 0.55062  0.13237  0.50005  Biso   1.000  Hf
  Hf11     1.0000 0.46768  0.38337  0.50237  Biso   1.000  Hf
  Hf12     1.0000 0.45119  0.35899  0.25655  Biso   1.000  Hf
  Hf13     1.0000 0.27581  0.01209  0.62613  Biso   1.000  Hf
  Hf14     1.0000 0.28161  0.22389  0.86667  Biso   1.000  Hf
  Hf15     1.0000 0.74041  0.26671  0.62656  Biso   1.000  Hf
  Hf16     1.0000 0.73647  0.48512  0.87438  Biso   1.000  Hf
  Hf17     1.0000 0.07741  0.18002  0.69035  Biso   1.000  Hf
  Hf18     1.0000 0.08738  0.05869  0.93396  Biso   1.000  Hf
  Hf19     1.0000 0.94011  0.43194  0.70133  Biso   1.000  Hf
  Hf20     1.0000 0.93880  0.31401  0.94455  Biso   1.000  Hf
  Hf21     1.0000 0.55044  0.11274  0.74575  Biso   1.000  Hf
  Hf22     1.0000 0.57395  0.11935  0.99063  Biso   1.000  Hf
  Hf23     1.0000 0.46972  0.39072  0.99987  Biso   1.000  Hf
  Hf24     1.0000 0.47176  0.36550  0.75030  Biso   1.000  Hf
  Hf25     1.0000 0.26227  0.53966  0.12179  Biso   1.000  Hf
  Hf26     1.0000 0.27209  0.73625  0.37759  Biso   1.000  Hf
  Hf27     1.0000 0.72726  0.77016  0.12671  Biso   1.000  Hf
  Hf28     1.0000 0.73792  0.98624  0.37253  Biso   1.000  Hf
  Hf29     1.0000 0.06253  0.69062  0.20191  Biso   1.000  Hf
  Hf30     1.0000 0.06826  0.56815  0.44740  Biso   1.000  Hf
  Hf31     1.0000 0.92556  0.93610  0.19126  Biso   1.000  Hf
  Hf32     1.0000 0.93256  0.81756  0.44347  Biso   1.000  Hf
  Hf33     1.0000 0.54199  0.62043  0.25097  Biso   1.000  Hf
  Hf34     1.0000 0.53990  0.63272  0.49920  Biso   1.000  Hf
  Hf35     1.0000 0.46925  0.88379  0.49806  Biso   1.000  Hf
  Hf36     1.0000 0.45989  0.86670  0.24893  Biso   1.000  Hf
  Hf37     1.0000 0.27204  0.51457  0.62502  Biso   1.000  Hf
  Hf38     1.0000 0.26959  0.73702  0.87108  Biso   1.000  Hf
  Hf39     1.0000 0.74187  0.76389  0.62132  Biso   1.000  Hf
  Hf40     1.0000 0.74270  0.97659  0.87246  Biso   1.000  Hf
  Hf41     1.0000 0.07634  0.68182  0.69324  Biso   1.000  Hf
  Hf42     1.0000 0.06936  0.57206  0.94424  Biso   1.000  Hf
  Hf43     1.0000 0.94399  0.92653  0.69583  Biso   1.000  Hf
  Hf44     1.0000 0.93540  0.81502  0.94796  Biso   1.000  Hf
  Hf45     1.0000 0.54325  0.61420  0.74830  Biso   1.000  Hf
  Hf46     1.0000 0.54124  0.63975  0.99591  Biso   1.000  Hf
  Hf47     1.0000 0.45999  0.88207  0.99846  Biso   1.000  Hf
  Hf48     1.0000 0.47469  0.86303  0.74678  Biso   1.000  Hf
  Tc1      1.0000 0.18430  0.30523  0.10880  Biso   1.000  Tc
