data_image0
_cell_length_a       10.0453
_cell_length_b       5.2324
_cell_length_c       10.1086
_cell_angle_alpha    90.3633
_cell_angle_beta     89.9633
_cell_angle_gamma    90.3098

_symmetry_space_group_name_H-M    "P 1"
_symmetry_int_tables_number       1

loop_
  _symmetry_equiv_pos_as_xyz
  'x, y, z'

loop_
  _atom_site_label
  _atom_site_occupancy
  _atom_site_fract_x
  _atom_site_fract_y
  _atom_site_fract_z
  _atom_site_thermal_displace_type
  _atom_site_B_iso_or_equiv
  _atom_site_type_symbol
  Hf1      1.0000 0.12292  0.12101  0.10933  Biso   1.000  Hf
  Hf2      1.0000 0.13491  0.45439  0.38782  Biso   1.000  Hf
  Hf3      1.0000 0.37468  0.52169  0.12039  Biso   1.000  Hf
  Hf4      1.0000 0.36555  0.95680  0.37420  Biso   1.000  Hf
  Hf5      1.0000 0.00544  0.36505  0.22943  Biso   1.000  Hf
  Hf6      1.0000 0.03467  0.12383  0.45418  Biso   1.000  Hf
  Hf7      1.0000 0.46670  0.85875  0.19619  Biso   1.000  Hf
  Hf8      1.0000 0.46802  0.62905  0.44909  Biso   1.000  Hf
  Hf9      1.0000 0.26386  0.20092  0.24990  Biso   1.000  Hf
  Hf10     1.0000 0.27402  0.25653  0.50021  Biso   1.000  Hf
  Hf11     1.0000 0.23205  0.76119  0.50264  Biso   1.000  Hf
  Hf12     1.0000 0.24746  0.68115  0.26163  Biso   1.000  Hf
  Hf13     1.0000 0.13486  0.02470  0.62707  Biso   1.000  Hf
  Hf14     1.0000 0.13838  0.46884  0.86395  Biso   1.000  Hf
  Hf15     1.0000 0.37052  0.52830  0.62394  Biso   1.000  Hf
  Hf16     1.0000 0.37122  0.96772  0.87252  Biso   1.000  Hf
  Hf17     1.0000 0.03790  0.36649  0.68753  Biso   1.000  Hf
  Hf18     1.0000 0.03403  0.13955  0.92624  Biso   1.000  Hf
  Hf19     1.0000 0.47060  0.86043  0.69575  Biso   1.000  Hf
  Hf20     1.0000 0.47235  0.63828  0.94419  Biso   1.000  Hf
  Hf21     1.0000 0.27168  0.22963  0.74516  Biso   1.000  Hf
  Hf22     1.0000 0.28247  0.27161  0.98474  Biso   1.000  Hf
  Hf23     1.0000 0.24036  0.78370  0.99866  Biso   1.000  Hf
  Hf24     1.0000 0.23695  0.73335  0.74735  Biso   1.000  Hf
  Hf25     1.0000 0.63062  0.02511  0.12577  Biso   1.000  Hf
  Hf26     1.0000 0.63257  0.45897  0.37752  Biso   1.000  Hf
  Hf27     1.0000 0.84811  0.52917  0.12551  Biso   1.000  Hf
  Hf28     1.0000 0.86733  0.96803  0.37646  Biso   1.000  Hf
  Hf29     1.0000 0.53349  0.35472  0.19983  Biso   1.000  Hf
  Hf30     1.0000 0.53466  0.12673  0.44714  Biso   1.000  Hf
  Hf31     1.0000 0.95947  0.88359  0.19413  Biso   1.000  Hf
  Hf32     1.0000 0.96768  0.63978  0.45018  Biso   1.000  Hf
  Hf33     1.0000 0.76111  0.22267  0.25024  Biso   1.000  Hf
  Hf34     1.0000 0.77039  0.26529  0.49800  Biso   1.000  Hf
  Hf35     1.0000 0.73321  0.76436  0.49993  Biso   1.000  Hf
  Hf36     1.0000 0.72524  0.72977  0.25247  Biso   1.000  Hf
  Hf37     1.0000 0.63519  0.02744  0.62263  Biso   1.000  Hf
  Hf38     1.0000 0.63443  0.46175  0.87232  Biso   1.000  Hf
  Hf39     1.0000 0.86879  0.53106  0.62289  Biso   1.000  Hf
  Hf40     1.0000 0.86299  0.96308  0.87287  Biso   1.000  Hf
  Hf41     1.0000 0.53685  0.36026  0.69579  Biso   1.000  Hf
  Hf42     1.0000 0.53763  0.13560  0.94687  Biso   1.000  Hf
  Hf43     1.0000 0.96862  0.85662  0.70140  Biso   1.000  Hf
  Hf44     1.0000 0.96977  0.64209  0.95391  Biso   1.000  Hf
  Hf45     1.0000 0.77165  0.22722  0.74694  Biso   1.000  Hf
  Hf46     1.0000 0.77071  0.25990  0.99719  Biso   1.000  Hf
  Hf47     1.0000 0.72768  0.76139  0.99877  Biso   1.000  Hf
  Hf48     1.0000 0.73379  0.72724  0.74924  Biso   1.000  Hf
  Tc1      1.0000 0.10170  0.63754  0.11661  Biso   1.000  Tc
