data_image0
_cell_length_a       10.0686
_cell_length_b       5.22316
_cell_length_c       10.0833
_cell_angle_alpha    90.0001
_cell_angle_beta     88.7883
_cell_angle_gamma    90.0002

_symmetry_space_group_name_H-M    "P 1"
_symmetry_int_tables_number       1

loop_
  _symmetry_equiv_pos_as_xyz
  'x, y, z'

loop_
  _atom_site_label
  _atom_site_occupancy
  _atom_site_fract_x
  _atom_site_fract_y
  _atom_site_fract_z
  _atom_site_thermal_displace_type
  _atom_site_B_iso_or_equiv
  _atom_site_type_symbol
  Hf1      1.0000 0.12491  0.86125  0.12491  Biso   1.000  Hf
  Hf2      1.0000 0.13481  0.49816  0.39081  Biso   1.000  Hf
  Hf3      1.0000 0.39760  0.51987  0.14680  Biso   1.000  Hf
  Hf4      1.0000 0.38005  0.02327  0.38255  Biso   1.000  Hf
  Hf5      1.0000 0.97890  0.30695  0.98061  Biso   1.000  Hf
  Hf6      1.0000 0.01998  0.10157  0.24709  Biso   1.000  Hf
  Hf7      1.0000 0.00347  0.59647  0.24048  Biso   1.000  Hf
  Hf8      1.0000 0.98514  0.79427  0.98613  Biso   1.000  Hf
  Hf9      1.0000 0.27092  0.30695  0.26920  Biso   1.000  Hf
  Hf10     1.0000 0.22984  0.10157  0.00273  Biso   1.000  Hf
  Hf11     1.0000 0.24634  0.59647  0.00933  Biso   1.000  Hf
  Hf12     1.0000 0.26467  0.79428  0.26368  Biso   1.000  Hf
  Hf13     1.0000 0.12491  0.99153  0.62491  Biso   1.000  Hf
  Hf14     1.0000 0.11500  0.49816  0.85901  Biso   1.000  Hf
  Hf15     1.0000 0.38189  0.52875  0.63240  Biso   1.000  Hf
  Hf16     1.0000 0.37590  0.01813  0.87146  Biso   1.000  Hf
  Hf17     1.0000 0.99018  0.30286  0.49103  Biso   1.000  Hf
  Hf18     1.0000 0.00314  0.21532  0.74017  Biso   1.000  Hf
  Hf19     1.0000 0.99885  0.71324  0.73850  Biso   1.000  Hf
  Hf20     1.0000 0.00550  0.80256  0.49092  Biso   1.000  Hf
  Hf21     1.0000 0.25963  0.30286  0.75878  Biso   1.000  Hf
  Hf22     1.0000 0.24668  0.21532  0.50964  Biso   1.000  Hf
  Hf23     1.0000 0.25097  0.71324  0.51132  Biso   1.000  Hf
  Hf24     1.0000 0.24432  0.80256  0.75890  Biso   1.000  Hf
  Hf25     1.0000 0.62491  0.99496  0.12491  Biso   1.000  Hf
  Hf26     1.0000 0.64159  0.50052  0.36185  Biso   1.000  Hf
  Hf27     1.0000 0.85222  0.51987  0.10302  Biso   1.000  Hf
  Hf28     1.0000 0.87392  0.01813  0.37836  Biso   1.000  Hf
  Hf29     1.0000 0.47734  0.28838  0.99808  Biso   1.000  Hf
  Hf30     1.0000 0.51324  0.22554  0.25312  Biso   1.000  Hf
  Hf31     1.0000 0.50882  0.74468  0.27409  Biso   1.000  Hf
  Hf32     1.0000 0.48602  0.80204  0.01500  Biso   1.000  Hf
  Hf33     1.0000 0.77248  0.28838  0.25173  Biso   1.000  Hf
  Hf34     1.0000 0.73658  0.22554  0.99669  Biso   1.000  Hf
  Hf35     1.0000 0.74100  0.74468  0.97573  Biso   1.000  Hf
  Hf36     1.0000 0.76380  0.80204  0.23482  Biso   1.000  Hf
  Hf37     1.0000 0.62491  0.03852  0.62491  Biso   1.000  Hf
  Hf38     1.0000 0.60823  0.50053  0.88797  Biso   1.000  Hf
  Hf39     1.0000 0.86792  0.52875  0.61741  Biso   1.000  Hf
  Hf40     1.0000 0.86977  0.02326  0.86727  Biso   1.000  Hf
  Hf41     1.0000 0.50072  0.34409  0.49647  Biso   1.000  Hf
  Hf42     1.0000 0.50279  0.23395  0.75109  Biso   1.000  Hf
  Hf43     1.0000 0.49804  0.72926  0.76588  Biso   1.000  Hf
  Hf44     1.0000 0.48773  0.84713  0.52618  Biso   1.000  Hf
  Hf45     1.0000 0.74910  0.34409  0.75335  Biso   1.000  Hf
  Hf46     1.0000 0.74703  0.23395  0.49872  Biso   1.000  Hf
  Hf47     1.0000 0.75178  0.72926  0.48394  Biso   1.000  Hf
  Hf48     1.0000 0.76209  0.84713  0.72363  Biso   1.000  Hf
  Tc1      1.0000 0.12491  0.34494  0.12491  Biso   1.000  Tc
