data_image0
_cell_length_a       10.0219
_cell_length_b       10.448
_cell_length_c       10.0463
_cell_angle_alpha    89.8536
_cell_angle_beta     89.3852
_cell_angle_gamma    89.9143

_symmetry_space_group_name_H-M    "P 1"
_symmetry_int_tables_number       1

loop_
  _symmetry_equiv_pos_as_xyz
  'x, y, z'

loop_
  _atom_site_label
  _atom_site_occupancy
  _atom_site_fract_x
  _atom_site_fract_y
  _atom_site_fract_z
  _atom_site_thermal_displace_type
  _atom_site_B_iso_or_equiv
  _atom_site_type_symbol
  Hf1      1.0000 0.13224  0.01523  0.12461  Biso   1.000  Hf
  Hf2      1.0000 0.13736  0.22599  0.38089  Biso   1.000  Hf
  Hf3      1.0000 0.38461  0.26946  0.12338  Biso   1.000  Hf
  Hf4      1.0000 0.36741  0.48157  0.37697  Biso   1.000  Hf
  Hf5      1.0000 0.01059  0.16876  0.22123  Biso   1.000  Hf
  Hf6      1.0000 0.03733  0.05880  0.45095  Biso   1.000  Hf
  Hf7      1.0000 0.47736  0.43208  0.20320  Biso   1.000  Hf
  Hf8      1.0000 0.47033  0.31768  0.45576  Biso   1.000  Hf
  Hf9      1.0000 0.26450  0.10411  0.25288  Biso   1.000  Hf
  Hf10     1.0000 0.27410  0.12984  0.50445  Biso   1.000  Hf
  Hf11     1.0000 0.23203  0.38127  0.50731  Biso   1.000  Hf
  Hf12     1.0000 0.25711  0.34957  0.26693  Biso   1.000  Hf
  Hf13     1.0000 0.13498  0.01045  0.62468  Biso   1.000  Hf
  Hf14     1.0000 0.12140  0.22600  0.86226  Biso   1.000  Hf
  Hf15     1.0000 0.36578  0.26700  0.63026  Biso   1.000  Hf
  Hf16     1.0000 0.37033  0.49161  0.87301  Biso   1.000  Hf
  Hf17     1.0000 0.03008  0.17528  0.68680  Biso   1.000  Hf
  Hf18     1.0000 0.02887  0.06137  0.94420  Biso   1.000  Hf
  Hf19     1.0000 0.46471  0.43263  0.69590  Biso   1.000  Hf
  Hf20     1.0000 0.46915  0.32153  0.94149  Biso   1.000  Hf
  Hf21     1.0000 0.26627  0.11235  0.75379  Biso   1.000  Hf
  Hf22     1.0000 0.24707  0.16307  0.01201  Biso   1.000  Hf
  Hf23     1.0000 0.25511  0.41298  0.01726  Biso   1.000  Hf
  Hf24     1.0000 0.22948  0.36624  0.75914  Biso   1.000  Hf
  Hf25     1.0000 0.12884  0.54100  0.11156  Biso   1.000  Hf
  Hf26     1.0000 0.13517  0.73197  0.37585  Biso   1.000  Hf
  Hf27     1.0000 0.36902  0.76787  0.12383  Biso   1.000  Hf
  Hf28     1.0000 0.36757  0.98219  0.37603  Biso   1.000  Hf
  Hf29     1.0000 0.02707  0.68808  0.20332  Biso   1.000  Hf
  Hf30     1.0000 0.03752  0.56447  0.44534  Biso   1.000  Hf
  Hf31     1.0000 0.46494  0.93145  0.19764  Biso   1.000  Hf
  Hf32     1.0000 0.46773  0.81471  0.44549  Biso   1.000  Hf
  Hf33     1.0000 0.27157  0.61448  0.24532  Biso   1.000  Hf
  Hf34     1.0000 0.27124  0.63055  0.49722  Biso   1.000  Hf
  Hf35     1.0000 0.23198  0.87956  0.49710  Biso   1.000  Hf
  Hf36     1.0000 0.22896  0.86161  0.24553  Biso   1.000  Hf
  Hf37     1.0000 0.13357  0.51405  0.62623  Biso   1.000  Hf
  Hf38     1.0000 0.12894  0.74153  0.86514  Biso   1.000  Hf
  Hf39     1.0000 0.36854  0.76102  0.62152  Biso   1.000  Hf
  Hf40     1.0000 0.37459  0.98135  0.86748  Biso   1.000  Hf
  Hf41     1.0000 0.03516  0.68321  0.68954  Biso   1.000  Hf
  Hf42     1.0000 0.03300  0.57060  0.93552  Biso   1.000  Hf
  Hf43     1.0000 0.46882  0.92845  0.69364  Biso   1.000  Hf
  Hf44     1.0000 0.46949  0.81977  0.94452  Biso   1.000  Hf
  Hf45     1.0000 0.26791  0.61562  0.74569  Biso   1.000  Hf
  Hf46     1.0000 0.26458  0.65500  0.99060  Biso   1.000  Hf
  Hf47     1.0000 0.23594  0.89851  0.99481  Biso   1.000  Hf
  Hf48     1.0000 0.23546  0.86406  0.74424  Biso   1.000  Hf
  Hf49     1.0000 0.63233  0.01295  0.12778  Biso   1.000  Hf
  Hf50     1.0000 0.63438  0.23358  0.37775  Biso   1.000  Hf
  Hf51     1.0000 0.85554  0.25966  0.12009  Biso   1.000  Hf
  Hf52     1.0000 0.87165  0.48023  0.37412  Biso   1.000  Hf
  Hf53     1.0000 0.53702  0.17889  0.20415  Biso   1.000  Hf
  Hf54     1.0000 0.53569  0.06527  0.44722  Biso   1.000  Hf
  Hf55     1.0000 0.97494  0.42611  0.19260  Biso   1.000  Hf
  Hf56     1.0000 0.96921  0.31698  0.44808  Biso   1.000  Hf
  Hf57     1.0000 0.76349  0.11115  0.24915  Biso   1.000  Hf
  Hf58     1.0000 0.77061  0.13433  0.49798  Biso   1.000  Hf
  Hf59     1.0000 0.73420  0.38397  0.49827  Biso   1.000  Hf
  Hf60     1.0000 0.73537  0.36491  0.25063  Biso   1.000  Hf
  Hf61     1.0000 0.63613  0.01540  0.62217  Biso   1.000  Hf
  Hf62     1.0000 0.63365  0.23330  0.87265  Biso   1.000  Hf
  Hf63     1.0000 0.86515  0.26755  0.62332  Biso   1.000  Hf
  Hf64     1.0000 0.86198  0.48314  0.87217  Biso   1.000  Hf
  Hf65     1.0000 0.53167  0.17766  0.69987  Biso   1.000  Hf
  Hf66     1.0000 0.52317  0.07457  0.95631  Biso   1.000  Hf
  Hf67     1.0000 0.96432  0.43145  0.69460  Biso   1.000  Hf
  Hf68     1.0000 0.95179  0.31548  0.93380  Biso   1.000  Hf
  Hf69     1.0000 0.76883  0.11501  0.74739  Biso   1.000  Hf
  Hf70     1.0000 0.76320  0.12907  0.99686  Biso   1.000  Hf
  Hf71     1.0000 0.72412  0.38222  0.99885  Biso   1.000  Hf
  Hf72     1.0000 0.72589  0.36747  0.74653  Biso   1.000  Hf
  Hf73     1.0000 0.63756  0.51767  0.12705  Biso   1.000  Hf
  Hf74     1.0000 0.63532  0.73164  0.37476  Biso   1.000  Hf
  Hf75     1.0000 0.86281  0.76684  0.12544  Biso   1.000  Hf
  Hf76     1.0000 0.87039  0.98484  0.37217  Biso   1.000  Hf
  Hf77     1.0000 0.53687  0.68441  0.19616  Biso   1.000  Hf
  Hf78     1.0000 0.53630  0.56663  0.44665  Biso   1.000  Hf
  Hf79     1.0000 0.96295  0.93082  0.19332  Biso   1.000  Hf
  Hf80     1.0000 0.96625  0.81610  0.44470  Biso   1.000  Hf
  Hf81     1.0000 0.77223  0.61384  0.24863  Biso   1.000  Hf
  Hf82     1.0000 0.77108  0.63210  0.49730  Biso   1.000  Hf
  Hf83     1.0000 0.73350  0.88384  0.49716  Biso   1.000  Hf
  Hf84     1.0000 0.72941  0.86492  0.24887  Biso   1.000  Hf
  Hf85     1.0000 0.63361  0.51525  0.62272  Biso   1.000  Hf
  Hf86     1.0000 0.63561  0.73238  0.87455  Biso   1.000  Hf
  Hf87     1.0000 0.86604  0.76489  0.62120  Biso   1.000  Hf
  Hf88     1.0000 0.86361  0.98076  0.87332  Biso   1.000  Hf
  Hf89     1.0000 0.53321  0.67961  0.69897  Biso   1.000  Hf
  Hf90     1.0000 0.53368  0.57116  0.95152  Biso   1.000  Hf
  Hf91     1.0000 0.96856  0.92640  0.69976  Biso   1.000  Hf
  Hf92     1.0000 0.96369  0.81622  0.94783  Biso   1.000  Hf
  Hf93     1.0000 0.76821  0.61612  0.74617  Biso   1.000  Hf
  Hf94     1.0000 0.77064  0.63311  0.99752  Biso   1.000  Hf
  Hf95     1.0000 0.72747  0.88237  0.99794  Biso   1.000  Hf
  Hf96     1.0000 0.73035  0.86516  0.74681  Biso   1.000  Hf
  Tc1      1.0000 0.11705  0.29880  0.11212  Biso   1.000  Tc
