data_image0
_cell_length_a       10.0646
_cell_length_b       5.12305
_cell_length_c       10.409
_cell_angle_alpha    90.0826
_cell_angle_beta     80.3883
_cell_angle_gamma    89.9097

_symmetry_space_group_name_H-M    "P 1"
_symmetry_int_tables_number       1

loop_
  _symmetry_equiv_pos_as_xyz
  'x, y, z'

loop_
  _atom_site_label
  _atom_site_occupancy
  _atom_site_fract_x
  _atom_site_fract_y
  _atom_site_fract_z
  _atom_site_thermal_displace_type
  _atom_site_B_iso_or_equiv
  _atom_site_type_symbol
  Ti1      1.0000 0.13302  0.04973  0.14629  Biso   1.000  Ti
  Hf1      1.0000 0.13992  0.45614  0.39269  Biso   1.000  Hf
  Hf2      1.0000 0.35609  0.54478  0.10541  Biso   1.000  Hf
  Hf3      1.0000 0.35930  0.95689  0.35188  Biso   1.000  Hf
  O1       1.0000 0.03843  0.32536  0.08439  Biso   1.000  O
  O2       1.0000 0.04000  0.15505  0.32436  Biso   1.000  O
  O3       1.0000 0.46468  0.83839  0.16863  Biso   1.000  O
  O4       1.0000 0.46409  0.66069  0.41836  Biso   1.000  O
  O5       1.0000 0.27271  0.25104  0.23672  Biso   1.000  O
  O6       1.0000 0.27759  0.24273  0.48920  Biso   1.000  O
  O7       1.0000 0.21814  0.77109  0.01434  Biso   1.000  O
  O8       1.0000 0.22195  0.74127  0.25881  Biso   1.000  O
  Hf4      1.0000 0.13938  0.04326  0.64534  Biso   1.000  Hf
  Hf5      1.0000 0.14072  0.45728  0.89686  Biso   1.000  Hf
  Hf6      1.0000 0.36142  0.54437  0.60384  Biso   1.000  Hf
  Hf7      1.0000 0.35888  0.95969  0.85685  Biso   1.000  Hf
  O9       1.0000 0.03537  0.33454  0.57767  Biso   1.000  O
  O10      1.0000 0.03611  0.16341  0.83057  Biso   1.000  O
  O11      1.0000 0.46250  0.84307  0.66935  Biso   1.000  O
  O12      1.0000 0.45968  0.65700  0.91900  Biso   1.000  O
  O13      1.0000 0.27717  0.25920  0.74063  Biso   1.000  O
  O14      1.0000 0.27464  0.24372  0.99271  Biso   1.000  O
  O15      1.0000 0.22256  0.75809  0.50891  Biso   1.000  O
  O16      1.0000 0.22267  0.74147  0.76065  Biso   1.000  O
  Hf8      1.0000 0.63786  0.04537  0.14582  Biso   1.000  Hf
  Hf9      1.0000 0.63954  0.45776  0.39555  Biso   1.000  Hf
  Hf10     1.0000 0.86320  0.54385  0.10488  Biso   1.000  Hf
  Hf11     1.0000 0.86360  0.95777  0.35312  Biso   1.000  Hf
  O17      1.0000 0.53514  0.34299  0.08184  Biso   1.000  O
  O18      1.0000 0.53624  0.16013  0.33079  Biso   1.000  O
  O19      1.0000 0.97361  0.84137  0.16707  Biso   1.000  O
  O20      1.0000 0.96339  0.65625  0.41774  Biso   1.000  O
  O21      1.0000 0.77847  0.25827  0.24044  Biso   1.000  O
  O22      1.0000 0.77796  0.23989  0.49025  Biso   1.000  O
  O23      1.0000 0.72409  0.75906  0.01003  Biso   1.000  O
  O24      1.0000 0.72792  0.74241  0.25802  Biso   1.000  O
  Hf12     1.0000 0.63846  0.04187  0.64636  Biso   1.000  Hf
  Hf13     1.0000 0.63735  0.45826  0.89713  Biso   1.000  Hf
  Hf14     1.0000 0.86079  0.54121  0.60423  Biso   1.000  Hf
  Hf15     1.0000 0.86159  0.95723  0.85484  Biso   1.000  Hf
  O25      1.0000 0.53754  0.34279  0.58123  Biso   1.000  O
  O26      1.0000 0.53607  0.15787  0.83264  Biso   1.000  O
  O27      1.0000 0.96461  0.83658  0.67025  Biso   1.000  O
  O28      1.0000 0.96488  0.65891  0.92180  Biso   1.000  O
  O29      1.0000 0.77669  0.25803  0.74146  Biso   1.000  O
  O30      1.0000 0.77781  0.24401  0.99157  Biso   1.000  O
  O31      1.0000 0.72349  0.75818  0.50930  Biso   1.000  O
  O32      1.0000 0.72271  0.74170  0.76018  Biso   1.000  O
