data_image0
_cell_length_a       10.0542
_cell_length_b       5.0017
_cell_length_c       10.0542
_cell_angle_alpha    90
_cell_angle_beta     90
_cell_angle_gamma    90.0001

_symmetry_space_group_name_H-M    "P 1"
_symmetry_int_tables_number       1

loop_
  _symmetry_equiv_pos_as_xyz
  'x, y, z'

loop_
  _atom_site_label
  _atom_site_occupancy
  _atom_site_fract_x
  _atom_site_fract_y
  _atom_site_fract_z
  _atom_site_thermal_displace_type
  _atom_site_B_iso_or_equiv
  _atom_site_type_symbol
  Ti1      1.0000 0.12491  0.00011  0.12491  Biso   1.000  Ti
  Hf1      1.0000 0.12491  0.50011  0.37476  Biso   1.000  Hf
  Hf2      1.0000 0.37476  0.50011  0.12491  Biso   1.000  Hf
  Hf3      1.0000 0.37393  0.00643  0.37393  Biso   1.000  Hf
  Hf4      1.0000 0.97934  0.29254  0.97934  Biso   1.000  Hf
  Hf5      1.0000 0.01946  0.21674  0.23035  Biso   1.000  Hf
  Hf6      1.0000 0.97934  0.70768  0.27048  Biso   1.000  Hf
  Hf7      1.0000 0.01946  0.78347  0.01946  Biso   1.000  Hf
  Hf8      1.0000 0.27048  0.29253  0.27048  Biso   1.000  Hf
  Hf9      1.0000 0.23036  0.21674  0.01946  Biso   1.000  Hf
  Hf10     1.0000 0.27048  0.70768  0.97934  Biso   1.000  Hf
  Hf11     1.0000 0.23036  0.78347  0.23035  Biso   1.000  Hf
  Hf12     1.0000 0.12491  0.00011  0.62491  Biso   1.000  Hf
  Hf13     1.0000 0.12491  0.50011  0.87505  Biso   1.000  Hf
  Hf14     1.0000 0.37532  0.50011  0.62491  Biso   1.000  Hf
  Hf15     1.0000 0.37393  0.99378  0.87589  Biso   1.000  Hf
  Hf16     1.0000 0.98675  0.26517  0.48104  Biso   1.000  Hf
  Hf17     1.0000 0.01101  0.24406  0.73404  Biso   1.000  Hf
  Hf18     1.0000 0.98675  0.73505  0.76877  Biso   1.000  Hf
  Hf19     1.0000 0.01101  0.75616  0.51578  Biso   1.000  Hf
  Hf20     1.0000 0.26307  0.26517  0.76877  Biso   1.000  Hf
  Hf21     1.0000 0.23881  0.24406  0.51578  Biso   1.000  Hf
  Hf22     1.0000 0.26307  0.73505  0.48104  Biso   1.000  Hf
  Hf23     1.0000 0.23881  0.75616  0.73404  Biso   1.000  Hf
  Hf24     1.0000 0.62491  0.00011  0.12491  Biso   1.000  Hf
  Hf25     1.0000 0.62491  0.50011  0.37532  Biso   1.000  Hf
  Hf26     1.0000 0.87505  0.50011  0.12491  Biso   1.000  Hf
  Hf27     1.0000 0.87589  0.99378  0.37393  Biso   1.000  Hf
  Hf28     1.0000 0.48105  0.26517  0.98674  Biso   1.000  Hf
  Hf29     1.0000 0.51577  0.24406  0.23881  Biso   1.000  Hf
  Hf30     1.0000 0.48105  0.73504  0.26307  Biso   1.000  Hf
  Hf31     1.0000 0.51577  0.75616  0.01101  Biso   1.000  Hf
  Hf32     1.0000 0.76877  0.26517  0.26308  Biso   1.000  Hf
  Hf33     1.0000 0.73404  0.24406  0.01101  Biso   1.000  Hf
  Hf34     1.0000 0.76877  0.73504  0.98674  Biso   1.000  Hf
  Hf35     1.0000 0.73404  0.75616  0.23881  Biso   1.000  Hf
  Hf36     1.0000 0.62491  0.00011  0.62491  Biso   1.000  Hf
  Hf37     1.0000 0.62491  0.50011  0.87449  Biso   1.000  Hf
  Hf38     1.0000 0.87449  0.50011  0.62491  Biso   1.000  Hf
  Hf39     1.0000 0.87589  0.00643  0.87589  Biso   1.000  Hf
  Hf40     1.0000 0.48678  0.26238  0.48677  Biso   1.000  Hf
  Hf41     1.0000 0.51188  0.24585  0.73794  Biso   1.000  Hf
  Hf42     1.0000 0.48678  0.73784  0.76304  Biso   1.000  Hf
  Hf43     1.0000 0.51188  0.75437  0.51188  Biso   1.000  Hf
  Hf44     1.0000 0.76304  0.26238  0.76304  Biso   1.000  Hf
  Hf45     1.0000 0.73794  0.24585  0.51188  Biso   1.000  Hf
  Hf46     1.0000 0.76304  0.73784  0.48677  Biso   1.000  Hf
  Hf47     1.0000 0.73794  0.75437  0.73794  Biso   1.000  Hf
