data_image0
_cell_length_a       9.93638
_cell_length_b       10.3518
_cell_length_c       9.98147
_cell_angle_alpha    90.0289
_cell_angle_beta     89.9089
_cell_angle_gamma    90.0113

_symmetry_space_group_name_H-M    "P 1"
_symmetry_int_tables_number       1

loop_
  _symmetry_equiv_pos_as_xyz
  'x, y, z'

loop_
  _atom_site_label
  _atom_site_occupancy
  _atom_site_fract_x
  _atom_site_fract_y
  _atom_site_fract_z
  _atom_site_thermal_displace_type
  _atom_site_B_iso_or_equiv
  _atom_site_type_symbol
  Ti1      1.0000 0.13051  0.01888  0.12584  Biso   1.000  Ti
  Hf1      1.0000 0.13387  0.23174  0.37380  Biso   1.000  Hf
  Hf2      1.0000 0.36520  0.26459  0.12559  Biso   1.000  Hf
  Hf3      1.0000 0.36643  0.48329  0.37619  Biso   1.000  Hf
  Hf4      1.0000 0.03917  0.18033  0.18962  Biso   1.000  Hf
  Hf5      1.0000 0.03625  0.06610  0.44630  Biso   1.000  Hf
  Hf6      1.0000 0.46316  0.43413  0.19345  Biso   1.000  Hf
  Hf7      1.0000 0.46396  0.31590  0.44432  Biso   1.000  Hf
  Hf8      1.0000 0.26505  0.11219  0.24581  Biso   1.000  Hf
  Hf9      1.0000 0.27119  0.13254  0.49839  Biso   1.000  Hf
  Hf10     1.0000 0.22883  0.38169  0.49965  Biso   1.000  Hf
  Hf11     1.0000 0.23017  0.36629  0.24985  Biso   1.000  Hf
  Hf12     1.0000 0.13444  0.01700  0.62677  Biso   1.000  Hf
  Hf13     1.0000 0.13431  0.23244  0.87866  Biso   1.000  Hf
  Hf14     1.0000 0.36536  0.26689  0.62623  Biso   1.000  Hf
  Hf15     1.0000 0.36561  0.48399  0.87623  Biso   1.000  Hf
  Hf16     1.0000 0.03517  0.18311  0.69790  Biso   1.000  Hf
  Hf17     1.0000 0.03800  0.06342  0.95129  Biso   1.000  Hf
  Hf18     1.0000 0.46278  0.43507  0.69365  Biso   1.000  Hf
  Hf19     1.0000 0.46246  0.31514  0.94368  Biso   1.000  Hf
  Hf20     1.0000 0.27089  0.11844  0.75037  Biso   1.000  Hf
  Hf21     1.0000 0.26917  0.13119  0.00144  Biso   1.000  Hf
  Hf22     1.0000 0.22904  0.38218  0.00036  Biso   1.000  Hf
  Hf23     1.0000 0.22839  0.36782  0.75071  Biso   1.000  Hf
  Hf24     1.0000 0.13473  0.51629  0.12643  Biso   1.000  Hf
  Hf25     1.0000 0.13500  0.73419  0.37619  Biso   1.000  Hf
  Hf26     1.0000 0.36385  0.76825  0.12732  Biso   1.000  Hf
  Hf27     1.0000 0.36442  0.98315  0.37477  Biso   1.000  Hf
  Hf28     1.0000 0.03691  0.68440  0.19391  Biso   1.000  Hf
  Hf29     1.0000 0.03673  0.56546  0.44381  Biso   1.000  Hf
  Hf30     1.0000 0.46602  0.93334  0.19555  Biso   1.000  Hf
  Hf31     1.0000 0.46365  0.81570  0.44452  Biso   1.000  Hf
  Hf32     1.0000 0.27090  0.61751  0.25033  Biso   1.000  Hf
  Hf33     1.0000 0.27141  0.63215  0.50037  Biso   1.000  Hf
  Hf34     1.0000 0.22918  0.88210  0.50137  Biso   1.000  Hf
  Hf35     1.0000 0.22905  0.86840  0.25073  Biso   1.000  Hf
  Hf36     1.0000 0.13439  0.51660  0.62610  Biso   1.000  Hf
  Hf37     1.0000 0.13379  0.73450  0.87725  Biso   1.000  Hf
  Hf38     1.0000 0.36595  0.76725  0.62709  Biso   1.000  Hf
  Hf39     1.0000 0.36296  0.98434  0.87951  Biso   1.000  Hf
  Hf40     1.0000 0.03674  0.68482  0.69412  Biso   1.000  Hf
  Hf41     1.0000 0.03628  0.56544  0.94477  Biso   1.000  Hf
  Hf42     1.0000 0.46269  0.93496  0.69558  Biso   1.000  Hf
  Hf43     1.0000 0.46064  0.81605  0.94434  Biso   1.000  Hf
  Hf44     1.0000 0.27057  0.61851  0.75061  Biso   1.000  Hf
  Hf45     1.0000 0.27041  0.63317  0.00047  Biso   1.000  Hf
  Hf46     1.0000 0.22408  0.88659  0.00574  Biso   1.000  Hf
  Hf47     1.0000 0.22873  0.86872  0.75237  Biso   1.000  Hf
  Hf48     1.0000 0.63453  0.01665  0.12567  Biso   1.000  Hf
  Hf49     1.0000 0.63409  0.23324  0.37637  Biso   1.000  Hf
  Hf50     1.0000 0.86690  0.26590  0.12534  Biso   1.000  Hf
  Hf51     1.0000 0.86614  0.48335  0.37601  Biso   1.000  Hf
  Hf52     1.0000 0.53564  0.18379  0.19530  Biso   1.000  Hf
  Hf53     1.0000 0.53637  0.06531  0.44342  Biso   1.000  Hf
  Hf54     1.0000 0.96501  0.43249  0.19455  Biso   1.000  Hf
  Hf55     1.0000 0.96349  0.31417  0.44282  Biso   1.000  Hf
  Hf56     1.0000 0.77256  0.11735  0.24880  Biso   1.000  Hf
  Hf57     1.0000 0.77134  0.13167  0.49924  Biso   1.000  Hf
  Hf58     1.0000 0.72955  0.38207  0.49994  Biso   1.000  Hf
  Hf59     1.0000 0.72954  0.36720  0.24954  Biso   1.000  Hf
  Hf60     1.0000 0.63277  0.01598  0.62578  Biso   1.000  Hf
  Hf61     1.0000 0.63355  0.23357  0.87558  Biso   1.000  Hf
  Hf62     1.0000 0.86612  0.26595  0.62609  Biso   1.000  Hf
  Hf63     1.0000 0.86579  0.48386  0.87555  Biso   1.000  Hf
  Hf64     1.0000 0.53661  0.18506  0.69326  Biso   1.000  Hf
  Hf65     1.0000 0.53549  0.06606  0.94514  Biso   1.000  Hf
  Hf66     1.0000 0.96301  0.43448  0.69296  Biso   1.000  Hf
  Hf67     1.0000 0.96305  0.31527  0.94341  Biso   1.000  Hf
  Hf68     1.0000 0.77007  0.11747  0.74951  Biso   1.000  Hf
  Hf69     1.0000 0.77053  0.13269  0.99916  Biso   1.000  Hf
  Hf70     1.0000 0.72937  0.38233  0.99982  Biso   1.000  Hf
  Hf71     1.0000 0.72903  0.36790  0.74963  Biso   1.000  Hf
  Hf72     1.0000 0.63368  0.51658  0.12624  Biso   1.000  Hf
  Hf73     1.0000 0.63447  0.73430  0.37471  Biso   1.000  Hf
  Hf74     1.0000 0.86842  0.76607  0.12375  Biso   1.000  Hf
  Hf75     1.0000 0.86743  0.98454  0.37599  Biso   1.000  Hf
  Hf76     1.0000 0.53669  0.68536  0.19347  Biso   1.000  Hf
  Hf77     1.0000 0.53747  0.56590  0.44304  Biso   1.000  Hf
  Hf78     1.0000 0.97570  0.93751  0.18930  Biso   1.000  Hf
  Hf79     1.0000 0.96370  0.81620  0.44250  Biso   1.000  Hf
  Hf80     1.0000 0.77158  0.61734  0.24919  Biso   1.000  Hf
  Hf81     1.0000 0.77077  0.63275  0.49949  Biso   1.000  Hf
  Hf82     1.0000 0.72987  0.88291  0.49877  Biso   1.000  Hf
  Hf83     1.0000 0.73575  0.86814  0.24836  Biso   1.000  Hf
  Hf84     1.0000 0.63404  0.51683  0.62577  Biso   1.000  Hf
  Hf85     1.0000 0.63297  0.73457  0.87620  Biso   1.000  Hf
  Hf86     1.0000 0.86604  0.76664  0.62592  Biso   1.000  Hf
  Hf87     1.0000 0.86726  0.98457  0.87606  Biso   1.000  Hf
  Hf88     1.0000 0.53655  0.68485  0.69407  Biso   1.000  Hf
  Hf89     1.0000 0.53680  0.56557  0.94341  Biso   1.000  Hf
  Hf90     1.0000 0.96384  0.93469  0.69399  Biso   1.000  Hf
  Hf91     1.0000 0.96102  0.81425  0.94074  Biso   1.000  Hf
  Hf92     1.0000 0.77046  0.61820  0.74992  Biso   1.000  Hf
  Hf93     1.0000 0.77059  0.63311  0.99990  Biso   1.000  Hf
  Hf94     1.0000 0.72928  0.88323  0.99913  Biso   1.000  Hf
  Hf95     1.0000 0.72915  0.86794  0.74940  Biso   1.000  Hf
