data_image0
_cell_length_a       9.91698
_cell_length_b       10.3398
_cell_length_c       4.98308
_cell_angle_alpha    90.0786
_cell_angle_beta     89.8157
_cell_angle_gamma    90.0195

_symmetry_space_group_name_H-M    "P 1"
_symmetry_int_tables_number       1

loop_
  _symmetry_equiv_pos_as_xyz
  'x, y, z'

loop_
  _atom_site_label
  _atom_site_occupancy
  _atom_site_fract_x
  _atom_site_fract_y
  _atom_site_fract_z
  _atom_site_thermal_displace_type
  _atom_site_B_iso_or_equiv
  _atom_site_type_symbol
  Ti1      1.0000 0.13042  0.01924  0.25270  Biso   1.000  Ti
  Hf1      1.0000 0.13420  0.23069  0.75225  Biso   1.000  Hf
  Hf2      1.0000 0.36449  0.26484  0.25121  Biso   1.000  Hf
  Hf3      1.0000 0.36607  0.48367  0.75265  Biso   1.000  Hf
  Hf4      1.0000 0.03774  0.17917  0.38676  Biso   1.000  Hf
  Hf5      1.0000 0.03776  0.06388  0.90750  Biso   1.000  Hf
  Hf6      1.0000 0.46239  0.43470  0.38601  Biso   1.000  Hf
  Hf7      1.0000 0.46303  0.31553  0.88790  Biso   1.000  Hf
  Hf8      1.0000 0.26511  0.11252  0.49142  Biso   1.000  Hf
  Hf9      1.0000 0.26981  0.13180  0.99892  Biso   1.000  Hf
  Hf10     1.0000 0.22850  0.38167  0.99999  Biso   1.000  Hf
  Hf11     1.0000 0.22923  0.36620  0.50116  Biso   1.000  Hf
  Hf12     1.0000 0.13508  0.51641  0.25291  Biso   1.000  Hf
  Hf13     1.0000 0.13480  0.73510  0.75494  Biso   1.000  Hf
  Hf14     1.0000 0.36377  0.76910  0.25684  Biso   1.000  Hf
  Hf15     1.0000 0.36146  0.98393  0.75624  Biso   1.000  Hf
  Hf16     1.0000 0.03706  0.68472  0.38832  Biso   1.000  Hf
  Hf17     1.0000 0.03638  0.56534  0.88927  Biso   1.000  Hf
  Hf18     1.0000 0.46547  0.93376  0.39483  Biso   1.000  Hf
  Hf19     1.0000 0.46081  0.81628  0.89005  Biso   1.000  Hf
  Hf20     1.0000 0.27072  0.61812  0.50215  Biso   1.000  Hf
  Hf21     1.0000 0.27109  0.63316  0.00200  Biso   1.000  Hf
  Hf22     1.0000 0.22394  0.88672  0.01480  Biso   1.000  Hf
  Hf23     1.0000 0.22855  0.86905  0.50666  Biso   1.000  Hf
  Hf24     1.0000 0.63331  0.01616  0.25074  Biso   1.000  Hf
  Hf25     1.0000 0.63366  0.23323  0.75171  Biso   1.000  Hf
  Hf26     1.0000 0.86701  0.26545  0.25061  Biso   1.000  Hf
  Hf27     1.0000 0.86589  0.48366  0.75080  Biso   1.000  Hf
  Hf28     1.0000 0.53566  0.18435  0.38914  Biso   1.000  Hf
  Hf29     1.0000 0.53535  0.06583  0.88918  Biso   1.000  Hf
  Hf30     1.0000 0.96445  0.43267  0.38676  Biso   1.000  Hf
  Hf31     1.0000 0.96301  0.31371  0.88390  Biso   1.000  Hf
  Hf32     1.0000 0.77197  0.11704  0.49672  Biso   1.000  Hf
  Hf33     1.0000 0.77123  0.13210  0.99692  Biso   1.000  Hf
  Hf34     1.0000 0.72961  0.38220  0.99952  Biso   1.000  Hf
  Hf35     1.0000 0.72918  0.36732  0.49836  Biso   1.000  Hf
  Hf36     1.0000 0.63357  0.51694  0.25178  Biso   1.000  Hf
  Hf37     1.0000 0.63331  0.73535  0.74961  Biso   1.000  Hf
  Hf38     1.0000 0.86845  0.76613  0.24717  Biso   1.000  Hf
  Hf39     1.0000 0.86875  0.98550  0.75178  Biso   1.000  Hf
  Hf40     1.0000 0.53659  0.68574  0.38710  Biso   1.000  Hf
  Hf41     1.0000 0.53764  0.56600  0.88487  Biso   1.000  Hf
  Hf42     1.0000 0.97601  0.93746  0.37958  Biso   1.000  Hf
  Hf43     1.0000 0.96147  0.81506  0.87908  Biso   1.000  Hf
  Hf44     1.0000 0.77126  0.61776  0.49830  Biso   1.000  Hf
  Hf45     1.0000 0.77058  0.63363  0.99880  Biso   1.000  Hf
  Hf46     1.0000 0.72990  0.88389  0.99588  Biso   1.000  Hf
  Hf47     1.0000 0.73560  0.86832  0.49576  Biso   1.000  Hf
