data_image0
_cell_length_a       10.1784
_cell_length_b       10.6692
_cell_length_c       5.15484
_cell_angle_alpha    89.9959
_cell_angle_beta     84.7425
_cell_angle_gamma    87.9348

_symmetry_space_group_name_H-M    "P 1"
_symmetry_int_tables_number       1

loop_
  _symmetry_equiv_pos_as_xyz
  'x, y, z'

loop_
  _atom_site_label
  _atom_site_occupancy
  _atom_site_fract_x
  _atom_site_fract_y
  _atom_site_fract_z
  _atom_site_thermal_displace_type
  _atom_site_B_iso_or_equiv
  _atom_site_type_symbol
  Hf1      1.0000 0.14037  0.01344  0.26436  Biso   1.000  Hf
  Hf2      1.0000 0.13775  0.20236  0.78785  Biso   1.000  Hf
  Hf3      1.0000 0.35385  0.27045  0.27242  Biso   1.000  Hf
  Hf4      1.0000 0.37692  0.48652  0.77662  Biso   1.000  Hf
  Hf5      1.0000 0.02733  0.08103  0.60240  Biso   1.000  Hf
  Hf6      1.0000 0.00972  0.12371  0.07282  Biso   1.000  Hf
  Hf7      1.0000 0.48873  0.40512  0.45401  Biso   1.000  Hf
  Hf8      1.0000 0.47671  0.32397  0.92738  Biso   1.000  Hf
  Hf9      1.0000 0.27308  0.10506  0.50346  Biso   1.000  Hf
  Hf10     1.0000 0.27613  0.12931  0.01451  Biso   1.000  Hf
  Hf11     1.0000 0.26228  0.42369  0.09651  Biso   1.000  Hf
  Hf12     1.0000 0.26266  0.34432  0.62634  Biso   1.000  Hf
  Hf13     1.0000 0.13722  0.56590  0.24045  Biso   1.000  Hf
  Hf14     1.0000 0.14718  0.75490  0.72553  Biso   1.000  Hf
  Hf15     1.0000 0.39994  0.74086  0.23867  Biso   1.000  Hf
  Hf16     1.0000 0.37153  0.97523  0.71888  Biso   1.000  Hf
  Hf17     1.0000 0.04727  0.72174  0.39332  Biso   1.000  Hf
  Hf18     1.0000 0.01855  0.61497  0.93808  Biso   1.000  Hf
  Hf19     1.0000 0.48903  0.90680  0.38968  Biso   1.000  Hf
  Hf20     1.0000 0.47917  0.82910  0.90929  Biso   1.000  Hf
  Hf21     1.0000 0.27063  0.61008  0.49980  Biso   1.000  Hf
  Hf22     1.0000 0.26970  0.66098  0.98068  Biso   1.000  Hf
  Hf23     1.0000 0.21689  0.90144  0.94432  Biso   1.000  Hf
  Hf24     1.0000 0.25425  0.85995  0.45419  Biso   1.000  Hf
  Hf25     1.0000 0.61043  0.00771  0.15588  Biso   1.000  Hf
  Hf26     1.0000 0.60338  0.23536  0.65985  Biso   1.000  Hf
  Hf27     1.0000 0.82750  0.23403  0.12301  Biso   1.000  Hf
  Hf28     1.0000 0.87859  0.50158  0.78593  Biso   1.000  Hf
  Hf29     1.0000 0.51566  0.16633  0.35467  Biso   1.000  Hf
  Hf30     1.0000 0.52292  0.06998  0.83997  Biso   1.000  Hf
  Hf31     1.0000 0.97982  0.49947  0.44053  Biso   1.000  Hf
  Hf32     1.0000 0.98107  0.33912  0.88835  Biso   1.000  Hf
  Hf33     1.0000 0.75126  0.08512  0.36181  Biso   1.000  Hf
  Hf34     1.0000 0.75260  0.13260  0.84966  Biso   1.000  Hf
  Hf35     1.0000 0.73382  0.39079  0.96436  Biso   1.000  Hf
  Hf36     1.0000 0.73675  0.33369  0.43064  Biso   1.000  Hf
  Hf37     1.0000 0.63880  0.50151  0.27203  Biso   1.000  Hf
  Hf38     1.0000 0.64429  0.72461  0.75107  Biso   1.000  Hf
  Hf39     1.0000 0.89357  0.77126  0.16756  Biso   1.000  Hf
  Hf40     1.0000 0.85632  0.97561  0.64183  Biso   1.000  Hf
  Hf41     1.0000 0.52423  0.65903  0.47117  Biso   1.000  Hf
  Hf42     1.0000 0.51299  0.58418  0.99662  Biso   1.000  Hf
  Hf43     1.0000 0.96391  0.92769  0.30448  Biso   1.000  Hf
  Hf44     1.0000 0.97404  0.84649  0.82780  Biso   1.000  Hf
  Hf45     1.0000 0.73985  0.57180  0.55898  Biso   1.000  Hf
  Hf46     1.0000 0.76206  0.63674  0.02942  Biso   1.000  Hf
  Hf47     1.0000 0.73515  0.88025  0.95984  Biso   1.000  Hf
  Hf48     1.0000 0.75756  0.82340  0.47972  Biso   1.000  Hf
  Tl1      1.0000 0.05184  0.30188  0.34671  Biso   1.000  Tl
