data_image0
_cell_length_a       10.3512
_cell_length_b       5.32572
_cell_length_c       10.3735
_cell_angle_alpha    101.189
_cell_angle_beta     88.9758
_cell_angle_gamma    90.2245

_symmetry_space_group_name_H-M    "P 1"
_symmetry_int_tables_number       1

loop_
  _symmetry_equiv_pos_as_xyz
  'x, y, z'

loop_
  _atom_site_label
  _atom_site_occupancy
  _atom_site_fract_x
  _atom_site_fract_y
  _atom_site_fract_z
  _atom_site_thermal_displace_type
  _atom_site_B_iso_or_equiv
  _atom_site_type_symbol
  Hf1      1.0000 0.16677  0.07699  0.10652  Biso   1.000  Hf
  Hf2      1.0000 0.11015  0.48092  0.39641  Biso   1.000  Hf
  Hf3      1.0000 0.36050  0.58039  0.09419  Biso   1.000  Hf
  Hf4      1.0000 0.40321  0.00071  0.37990  Biso   1.000  Hf
  Hf5      1.0000 0.94025  0.38635  0.95902  Biso   1.000  Hf
  Hf6      1.0000 0.02925  0.12059  0.25844  Biso   1.000  Hf
  Hf7      1.0000 0.94925  0.59508  0.30043  Biso   1.000  Hf
  Hf8      1.0000 0.03725  0.91308  0.96313  Biso   1.000  Hf
  Hf9      1.0000 0.24393  0.41266  0.23002  Biso   1.000  Hf
  Hf10     1.0000 0.24824  0.27315  0.96840  Biso   1.000  Hf
  Hf11     1.0000 0.26892  0.76289  0.95518  Biso   1.000  Hf
  Hf12     1.0000 0.29914  0.92658  0.21148  Biso   1.000  Hf
  Hf13     1.0000 0.15279  0.06558  0.60409  Biso   1.000  Hf
  Hf14     1.0000 0.09832  0.54235  0.86040  Biso   1.000  Hf
  Hf15     1.0000 0.35807  0.57340  0.60057  Biso   1.000  Hf
  Hf16     1.0000 0.39659  0.01272  0.87841  Biso   1.000  Hf
  Hf17     1.0000 0.99125  0.30350  0.50610  Biso   1.000  Hf
  Hf18     1.0000 0.00790  0.19655  0.73792  Biso   1.000  Hf
  Hf19     1.0000 0.98124  0.68887  0.74073  Biso   1.000  Hf
  Hf20     1.0000 0.02725  0.82226  0.49758  Biso   1.000  Hf
  Hf21     1.0000 0.22541  0.42402  0.70961  Biso   1.000  Hf
  Hf22     1.0000 0.24760  0.24276  0.46865  Biso   1.000  Hf
  Hf23     1.0000 0.26298  0.74408  0.46794  Biso   1.000  Hf
  Hf24     1.0000 0.27758  0.92001  0.71465  Biso   1.000  Hf
  Hf25     1.0000 0.64530  0.91490  0.15478  Biso   1.000  Hf
  Hf26     1.0000 0.60640  0.48525  0.37323  Biso   1.000  Hf
  Hf27     1.0000 0.83077  0.40334  0.14091  Biso   1.000  Hf
  Hf28     1.0000 0.89589  0.97171  0.38158  Biso   1.000  Hf
  Hf29     1.0000 0.48783  0.32336  0.99298  Biso   1.000  Hf
  Hf30     1.0000 0.51967  0.17132  0.25943  Biso   1.000  Hf
  Hf31     1.0000 0.49742  0.67620  0.24835  Biso   1.000  Hf
  Hf32     1.0000 0.50776  0.81788  0.00235  Biso   1.000  Hf
  Hf33     1.0000 0.75770  0.21938  0.28701  Biso   1.000  Hf
  Hf34     1.0000 0.77740  0.05763  0.03639  Biso   1.000  Hf
  Hf35     1.0000 0.70830  0.56827  0.03969  Biso   1.000  Hf
  Hf36     1.0000 0.73852  0.73277  0.28384  Biso   1.000  Hf
  Hf37     1.0000 0.64552  0.92142  0.65224  Biso   1.000  Hf
  Hf38     1.0000 0.60034  0.49417  0.86937  Biso   1.000  Hf
  Hf39     1.0000 0.84966  0.42638  0.65003  Biso   1.000  Hf
  Hf40     1.0000 0.89211  0.01409  0.86156  Biso   1.000  Hf
  Hf41     1.0000 0.48692  0.32161  0.49628  Biso   1.000  Hf
  Hf42     1.0000 0.51326  0.17747  0.75233  Biso   1.000  Hf
  Hf43     1.0000 0.49408  0.68787  0.74696  Biso   1.000  Hf
  Hf44     1.0000 0.51167  0.81027  0.50254  Biso   1.000  Hf
  Hf45     1.0000 0.74926  0.24193  0.78003  Biso   1.000  Hf
  Hf46     1.0000 0.77602  0.07330  0.53976  Biso   1.000  Hf
  Hf47     1.0000 0.72642  0.57557  0.53671  Biso   1.000  Hf
  Hf48     1.0000 0.74126  0.74329  0.78515  Biso   1.000  Hf
  Tl1      1.0000 0.07778  0.61353  0.13362  Biso   1.000  Tl
