data_image0
_cell_length_a       10.0014
_cell_length_b       5.18945
_cell_length_c       10.0553
_cell_angle_alpha    90.0464
_cell_angle_beta     89.9712
_cell_angle_gamma    89.9761

_symmetry_space_group_name_H-M    "P 1"
_symmetry_int_tables_number       1

loop_
  _symmetry_equiv_pos_as_xyz
  'x, y, z'

loop_
  _atom_site_label
  _atom_site_occupancy
  _atom_site_fract_x
  _atom_site_fract_y
  _atom_site_fract_z
  _atom_site_thermal_displace_type
  _atom_site_B_iso_or_equiv
  _atom_site_type_symbol
  Tl1      1.0000 0.12704  0.03062  0.12151  Biso   1.000  Tl
  Hf1      1.0000 0.13681  0.46702  0.37796  Biso   1.000  Hf
  Hf2      1.0000 0.36634  0.53023  0.12828  Biso   1.000  Hf
  Hf3      1.0000 0.36388  0.96703  0.37586  Biso   1.000  Hf
  Hf4      1.0000 0.03128  0.38611  0.20186  Biso   1.000  Hf
  Hf5      1.0000 0.03508  0.13066  0.44665  Biso   1.000  Hf
  Hf6      1.0000 0.46632  0.86643  0.19589  Biso   1.000  Hf
  Hf7      1.0000 0.46474  0.63226  0.44731  Biso   1.000  Hf
  Hf8      1.0000 0.27777  0.24378  0.25436  Biso   1.000  Hf
  Hf9      1.0000 0.27047  0.26355  0.50213  Biso   1.000  Hf
  Hf10     1.0000 0.22924  0.76670  0.50235  Biso   1.000  Hf
  Hf11     1.0000 0.23747  0.72310  0.25637  Biso   1.000  Hf
  Hf12     1.0000 0.13377  0.03512  0.62817  Biso   1.000  Hf
  Hf13     1.0000 0.13466  0.47106  0.87441  Biso   1.000  Hf
  Hf14     1.0000 0.36633  0.53380  0.62655  Biso   1.000  Hf
  Hf15     1.0000 0.36726  0.96759  0.87595  Biso   1.000  Hf
  Hf16     1.0000 0.03864  0.37756  0.68906  Biso   1.000  Hf
  Hf17     1.0000 0.03522  0.13664  0.92033  Biso   1.000  Hf
  Hf18     1.0000 0.46482  0.86762  0.69534  Biso   1.000  Hf
  Hf19     1.0000 0.46637  0.63114  0.94400  Biso   1.000  Hf
  Hf20     1.0000 0.27240  0.23734  0.74911  Biso   1.000  Hf
  Hf21     1.0000 0.27601  0.26997  0.99475  Biso   1.000  Hf
  Hf22     1.0000 0.23548  0.75577  0.99809  Biso   1.000  Hf
  Hf23     1.0000 0.23023  0.73814  0.74959  Biso   1.000  Hf
  Hf24     1.0000 0.63427  0.02998  0.12638  Biso   1.000  Hf
  Hf25     1.0000 0.63245  0.46639  0.37643  Biso   1.000  Hf
  Hf26     1.0000 0.86153  0.53060  0.12601  Biso   1.000  Hf
  Hf27     1.0000 0.86501  0.96876  0.37845  Biso   1.000  Hf
  Hf28     1.0000 0.53853  0.36756  0.19395  Biso   1.000  Hf
  Hf29     1.0000 0.53534  0.13127  0.44536  Biso   1.000  Hf
  Hf30     1.0000 0.95032  0.86716  0.19754  Biso   1.000  Hf
  Hf31     1.0000 0.96437  0.63330  0.44527  Biso   1.000  Hf
  Hf32     1.0000 0.76830  0.23355  0.25085  Biso   1.000  Hf
  Hf33     1.0000 0.76886  0.26705  0.49967  Biso   1.000  Hf
  Hf34     1.0000 0.72923  0.76546  0.50014  Biso   1.000  Hf
  Hf35     1.0000 0.72684  0.73336  0.25092  Biso   1.000  Hf
  Hf36     1.0000 0.63306  0.03263  0.62551  Biso   1.000  Hf
  Hf37     1.0000 0.63484  0.46408  0.87555  Biso   1.000  Hf
  Hf38     1.0000 0.86573  0.53257  0.62444  Biso   1.000  Hf
  Hf39     1.0000 0.86399  0.96293  0.87367  Biso   1.000  Hf
  Hf40     1.0000 0.53598  0.36719  0.69525  Biso   1.000  Hf
  Hf41     1.0000 0.53804  0.12930  0.94443  Biso   1.000  Hf
  Hf42     1.0000 0.96204  0.86874  0.69170  Biso   1.000  Hf
  Hf43     1.0000 0.96506  0.63498  0.94697  Biso   1.000  Hf
  Hf44     1.0000 0.77054  0.23389  0.74833  Biso   1.000  Hf
  Hf45     1.0000 0.77211  0.25937  0.99902  Biso   1.000  Hf
  Hf46     1.0000 0.72789  0.75965  0.99977  Biso   1.000  Hf
  Hf47     1.0000 0.72933  0.73310  0.74932  Biso   1.000  Hf
