data_image0
_cell_length_a       5.00884
_cell_length_b       10.2539
_cell_length_c       10.0595
_cell_angle_alpha    90
_cell_angle_beta     90
_cell_angle_gamma    90.0001

_symmetry_space_group_name_H-M    "P 1"
_symmetry_int_tables_number       1

loop_
  _symmetry_equiv_pos_as_xyz
  'x, y, z'

loop_
  _atom_site_label
  _atom_site_occupancy
  _atom_site_fract_x
  _atom_site_fract_y
  _atom_site_fract_z
  _atom_site_thermal_displace_type
  _atom_site_B_iso_or_equiv
  _atom_site_type_symbol
  Tl1      1.0000 0.24982  0.00005  0.12491  Biso   1.000  Tl
  Hf1      1.0000 0.24883  0.25202  0.37619  Biso   1.000  Hf
  Hf2      1.0000 0.74982  0.25398  0.12491  Biso   1.000  Hf
  Hf3      1.0000 0.74982  0.00005  0.37621  Biso   1.000  Hf
  Hf4      1.0000 0.98470  0.15145  0.99190  Biso   1.000  Hf
  Hf5      1.0000 0.99466  0.11078  0.25465  Biso   1.000  Hf
  Hf6      1.0000 0.00665  0.35444  0.24878  Biso   1.000  Hf
  Hf7      1.0000 0.99480  0.39869  0.00044  Biso   1.000  Hf
  Hf8      1.0000 0.51494  0.15145  0.25792  Biso   1.000  Hf
  Hf9      1.0000 0.50498  0.11079  0.99517  Biso   1.000  Hf
  Hf10     1.0000 0.49299  0.35444  0.00104  Biso   1.000  Hf
  Hf11     1.0000 0.50483  0.39869  0.24938  Biso   1.000  Hf
  Hf12     1.0000 0.24982  0.00006  0.62491  Biso   1.000  Hf
  Hf13     1.0000 0.25080  0.25202  0.87363  Biso   1.000  Hf
  Hf14     1.0000 0.74982  0.24844  0.62491  Biso   1.000  Hf
  Hf15     1.0000 0.74982  0.00005  0.87361  Biso   1.000  Hf
  Hf16     1.0000 0.00374  0.14926  0.50135  Biso   1.000  Hf
  Hf17     1.0000 0.99650  0.10093  0.74752  Biso   1.000  Hf
  Hf18     1.0000 0.99670  0.35227  0.74879  Biso   1.000  Hf
  Hf19     1.0000 0.00348  0.39857  0.49837  Biso   1.000  Hf
  Hf20     1.0000 0.49590  0.14926  0.74846  Biso   1.000  Hf
  Hf21     1.0000 0.50314  0.10093  0.50229  Biso   1.000  Hf
  Hf22     1.0000 0.50293  0.35227  0.50102  Biso   1.000  Hf
  Hf23     1.0000 0.49615  0.39857  0.75145  Biso   1.000  Hf
  Hf24     1.0000 0.24982  0.50006  0.12491  Biso   1.000  Hf
  Hf25     1.0000 0.25080  0.74808  0.37619  Biso   1.000  Hf
  Hf26     1.0000 0.74982  0.74613  0.12491  Biso   1.000  Hf
  Hf27     1.0000 0.74982  0.50005  0.37561  Biso   1.000  Hf
  Hf28     1.0000 0.00664  0.64567  0.00104  Biso   1.000  Hf
  Hf29     1.0000 0.99480  0.60142  0.24938  Biso   1.000  Hf
  Hf30     1.0000 0.98470  0.84866  0.25792  Biso   1.000  Hf
  Hf31     1.0000 0.99466  0.88932  0.99517  Biso   1.000  Hf
  Hf32     1.0000 0.49299  0.64567  0.24878  Biso   1.000  Hf
  Hf33     1.0000 0.50484  0.60142  0.00044  Biso   1.000  Hf
  Hf34     1.0000 0.51493  0.84866  0.99190  Biso   1.000  Hf
  Hf35     1.0000 0.50497  0.88932  0.25465  Biso   1.000  Hf
  Hf36     1.0000 0.24982  0.50005  0.62491  Biso   1.000  Hf
  Hf37     1.0000 0.24883  0.74808  0.87363  Biso   1.000  Hf
  Hf38     1.0000 0.74982  0.75167  0.62491  Biso   1.000  Hf
  Hf39     1.0000 0.74982  0.50005  0.87421  Biso   1.000  Hf
  Hf40     1.0000 0.99670  0.64784  0.50103  Biso   1.000  Hf
  Hf41     1.0000 0.00348  0.60154  0.75145  Biso   1.000  Hf
  Hf42     1.0000 0.00374  0.85085  0.74846  Biso   1.000  Hf
  Hf43     1.0000 0.99651  0.89918  0.50230  Biso   1.000  Hf
  Hf44     1.0000 0.50293  0.64784  0.74879  Biso   1.000  Hf
  Hf45     1.0000 0.49615  0.60154  0.49837  Biso   1.000  Hf
  Hf46     1.0000 0.49589  0.85085  0.50135  Biso   1.000  Hf
  Hf47     1.0000 0.50313  0.89918  0.74752  Biso   1.000  Hf
