data_image0
_cell_length_a       10.1787
_cell_length_b       10.2402
_cell_length_c       5.29875
_cell_angle_alpha    89.5358
_cell_angle_beta     80.0287
_cell_angle_gamma    89.9828

_symmetry_space_group_name_H-M    "P 1"
_symmetry_int_tables_number       1

loop_
  _symmetry_equiv_pos_as_xyz
  'x, y, z'

loop_
  _atom_site_label
  _atom_site_occupancy
  _atom_site_fract_x
  _atom_site_fract_y
  _atom_site_fract_z
  _atom_site_thermal_displace_type
  _atom_site_B_iso_or_equiv
  _atom_site_type_symbol
  Hf1      1.0000 0.13583  0.02060  0.29312  Biso   1.000  Hf
  Hf2      1.0000 0.13017  0.22842  0.79173  Biso   1.000  Hf
  Hf3      1.0000 0.35835  0.27289  0.18141  Biso   1.000  Hf
  Hf4      1.0000 0.35842  0.49001  0.71377  Biso   1.000  Hf
  O1       1.0000 0.03347  0.16271  0.15162  Biso   1.000  O
  O2       1.0000 0.03027  0.08481  0.64694  Biso   1.000  O
  O3       1.0000 0.47590  0.39293  0.38284  Biso   1.000  O
  O4       1.0000 0.48154  0.35904  0.86782  Biso   1.000  O
  O5       1.0000 0.27710  0.12312  0.46008  Biso   1.000  O
  O6       1.0000 0.28285  0.12618  0.94513  Biso   1.000  O
  O7       1.0000 0.21591  0.38658  0.02386  Biso   1.000  O
  O8       1.0000 0.23752  0.36454  0.52183  Biso   1.000  O
  Hf5      1.0000 0.13769  0.52307  0.29678  Biso   1.000  Hf
  Hf6      1.0000 0.13415  0.72919  0.79696  Biso   1.000  Hf
  Hf7      1.0000 0.36098  0.77172  0.20896  Biso   1.000  Hf
  Hf8      1.0000 0.35953  0.97105  0.70290  Biso   1.000  Hf
  O9       1.0000 0.02940  0.66220  0.15493  Biso   1.000  O
  O10      1.0000 0.03251  0.58724  0.65545  Biso   1.000  O
  O11      1.0000 0.46947  0.90879  0.35542  Biso   1.000  O
  O12      1.0000 0.46865  0.83879  0.85905  Biso   1.000  O
  O13      1.0000 0.27481  0.62865  0.48283  Biso   1.000  O
  O14      1.0000 0.27166  0.62817  0.98739  Biso   1.000  O
  O15      1.0000 0.22323  0.88088  0.02126  Biso   1.000  O
  O16      1.0000 0.22116  0.86821  0.51936  Biso   1.000  O
  Hf9      1.0000 0.63907  0.02276  0.29007  Biso   1.000  Hf
  Hf10     1.0000 0.64158  0.23170  0.79996  Biso   1.000  Hf
  Hf11     1.0000 0.86209  0.27345  0.21762  Biso   1.000  Hf
  Hf12     1.0000 0.86032  0.48028  0.71560  Biso   1.000  Hf
  O17      1.0000 0.53064  0.15855  0.14285  Biso   1.000  O
  O18      1.0000 0.52848  0.09151  0.65125  Biso   1.000  O
  O19      1.0000 0.97010  0.41062  0.36298  Biso   1.000  O
  O20      1.0000 0.96494  0.34135  0.86150  Biso   1.000  O
  O21      1.0000 0.77407  0.12861  0.48172  Biso   1.000  O
  O22      1.0000 0.77857  0.12100  0.98434  Biso   1.000  O
  O23      1.0000 0.72577  0.37795  0.03137  Biso   1.000  O
  O24      1.0000 0.72834  0.37381  0.52791  Biso   1.000  O
  Hf13     1.0000 0.63608  0.51938  0.29887  Biso   1.000  Hf
  Hf14     1.0000 0.63753  0.72776  0.79493  Biso   1.000  Hf
  Hf15     1.0000 0.85894  0.77171  0.21366  Biso   1.000  Hf
  Hf16     1.0000 0.85829  0.97853  0.71158  Biso   1.000  Hf
  O25      1.0000 0.52677  0.65394  0.14327  Biso   1.000  O
  O26      1.0000 0.53064  0.59609  0.63811  Biso   1.000  O
  O27      1.0000 0.96553  0.91192  0.35422  Biso   1.000  O
  O28      1.0000 0.96445  0.83732  0.85541  Biso   1.000  O
  O29      1.0000 0.77470  0.62809  0.48173  Biso   1.000  O
  O30      1.0000 0.77335  0.62228  0.98356  Biso   1.000  O
  O31      1.0000 0.72196  0.87825  0.02603  Biso   1.000  O
  O32      1.0000 0.72233  0.87250  0.52548  Biso   1.000  O
  V1       1.0000 0.39129  0.24070  0.64060  Biso   1.000  V
