data_image0
_cell_length_a       10.0895
_cell_length_b       10.1082
_cell_length_c       5.18868
_cell_angle_alpha    89.5324
_cell_angle_beta     92.2575
_cell_angle_gamma    91.0169

_symmetry_space_group_name_H-M    "P 1"
_symmetry_int_tables_number       1

loop_
  _symmetry_equiv_pos_as_xyz
  'x, y, z'

loop_
  _atom_site_label
  _atom_site_occupancy
  _atom_site_fract_x
  _atom_site_fract_y
  _atom_site_fract_z
  _atom_site_thermal_displace_type
  _atom_site_B_iso_or_equiv
  _atom_site_type_symbol
  Hf1      1.0000 0.11347  0.97663  0.23600  Biso   1.000  Hf
  Hf2      1.0000 0.12811  0.25005  0.67383  Biso   1.000  Hf
  Hf3      1.0000 0.40769  0.23845  0.27767  Biso   1.000  Hf
  Hf4      1.0000 0.38242  0.00422  0.80084  Biso   1.000  Hf
  Hf5      1.0000 0.03048  0.09956  0.91087  Biso   1.000  Hf
  Hf6      1.0000 0.00620  0.13305  0.39271  Biso   1.000  Hf
  Hf7      1.0000 0.01229  0.37485  0.41132  Biso   1.000  Hf
  Hf8      1.0000 0.97198  0.33569  0.93121  Biso   1.000  Hf
  Hf9      1.0000 0.24745  0.12380  0.44195  Biso   1.000  Hf
  Hf10     1.0000 0.27505  0.16315  0.95765  Biso   1.000  Hf
  Hf11     1.0000 0.21508  0.40253  0.91524  Biso   1.000  Hf
  Hf12     1.0000 0.25257  0.36715  0.40968  Biso   1.000  Hf
  Hf13     1.0000 0.13829  0.52582  0.23943  Biso   1.000  Hf
  Hf14     1.0000 0.12805  0.74755  0.73078  Biso   1.000  Hf
  Hf15     1.0000 0.39041  0.74826  0.30351  Biso   1.000  Hf
  Hf16     1.0000 0.38066  0.50907  0.79167  Biso   1.000  Hf
  Hf17     1.0000 0.02354  0.59848  0.92125  Biso   1.000  Hf
  Hf18     1.0000 0.01002  0.64539  0.42605  Biso   1.000  Hf
  Hf19     1.0000 0.99134  0.88583  0.53034  Biso   1.000  Hf
  Hf20     1.0000 0.97978  0.84951  0.02820  Biso   1.000  Hf
  Hf21     1.0000 0.25422  0.61645  0.54146  Biso   1.000  Hf
  Hf22     1.0000 0.26451  0.65201  0.03328  Biso   1.000  Hf
  Hf23     1.0000 0.22082  0.90473  0.92300  Biso   1.000  Hf
  Hf24     1.0000 0.23581  0.85350  0.43416  Biso   1.000  Hf
  Hf25     1.0000 0.63758  0.02395  0.25131  Biso   1.000  Hf
  Hf26     1.0000 0.63979  0.23786  0.71184  Biso   1.000  Hf
  Hf27     1.0000 0.85160  0.26082  0.25273  Biso   1.000  Hf
  Hf28     1.0000 0.87108  0.98436  0.78255  Biso   1.000  Hf
  Hf29     1.0000 0.51776  0.13826  0.98949  Biso   1.000  Hf
  Hf30     1.0000 0.50385  0.09738  0.51714  Biso   1.000  Hf
  Hf31     1.0000 0.49719  0.36903  0.59333  Biso   1.000  Hf
  Hf32     1.0000 0.46241  0.40349  0.09264  Biso   1.000  Hf
  Hf33     1.0000 0.77331  0.11943  0.52481  Biso   1.000  Hf
  Hf34     1.0000 0.76776  0.12077  0.00499  Biso   1.000  Hf
  Hf35     1.0000 0.72365  0.37694  0.99589  Biso   1.000  Hf
  Hf36     1.0000 0.76555  0.38407  0.51434  Biso   1.000  Hf
  Hf37     1.0000 0.61900  0.48386  0.28511  Biso   1.000  Hf
  Hf38     1.0000 0.63070  0.73885  0.77124  Biso   1.000  Hf
  Hf39     1.0000 0.85722  0.75780  0.29456  Biso   1.000  Hf
  Hf40     1.0000 0.86168  0.49672  0.80378  Biso   1.000  Hf
  Hf41     1.0000 0.51203  0.63731  0.01716  Biso   1.000  Hf
  Hf42     1.0000 0.50669  0.61317  0.51066  Biso   1.000  Hf
  Hf43     1.0000 0.47549  0.84600  0.63695  Biso   1.000  Hf
  Hf44     1.0000 0.47238  0.90680  0.12428  Biso   1.000  Hf
  Hf45     1.0000 0.75711  0.62964  0.56199  Biso   1.000  Hf
  Hf46     1.0000 0.76361  0.61680  0.06031  Biso   1.000  Hf
  Hf47     1.0000 0.73193  0.87616  0.00870  Biso   1.000  Hf
  Hf48     1.0000 0.73354  0.87525  0.50544  Biso   1.000  Hf
  W1       1.0000 0.12674  0.25125  0.17042  Biso   1.000  W 
