data_image0
_cell_length_a       5.18871
_cell_length_b       10.1082
_cell_length_c       10.0895
_cell_angle_alpha    91.0186
_cell_angle_beta     92.2586
_cell_angle_gamma    89.5333

_symmetry_space_group_name_H-M    "P 1"
_symmetry_int_tables_number       1

loop_
  _symmetry_equiv_pos_as_xyz
  'x, y, z'

loop_
  _atom_site_label
  _atom_site_occupancy
  _atom_site_fract_x
  _atom_site_fract_y
  _atom_site_fract_z
  _atom_site_thermal_displace_type
  _atom_site_B_iso_or_equiv
  _atom_site_type_symbol
  Hf1      1.0000 0.23594  0.97665  0.11349  Biso   1.000  Hf
  Hf2      1.0000 0.27760  0.23846  0.40773  Biso   1.000  Hf
  Hf3      1.0000 0.67377  0.25007  0.12813  Biso   1.000  Hf
  Hf4      1.0000 0.80075  0.00424  0.38242  Biso   1.000  Hf
  Hf5      1.0000 0.91083  0.09959  0.03049  Biso   1.000  Hf
  Hf6      1.0000 0.95761  0.16318  0.27507  Biso   1.000  Hf
  Hf7      1.0000 0.91518  0.40256  0.21509  Biso   1.000  Hf
  Hf8      1.0000 0.93119  0.33572  0.97200  Biso   1.000  Hf
  Hf9      1.0000 0.44194  0.12382  0.24748  Biso   1.000  Hf
  Hf10     1.0000 0.39266  0.13307  0.00622  Biso   1.000  Hf
  Hf11     1.0000 0.41129  0.37486  0.01231  Biso   1.000  Hf
  Hf12     1.0000 0.40963  0.36717  0.25259  Biso   1.000  Hf
  Hf13     1.0000 0.25125  0.02397  0.63758  Biso   1.000  Hf
  Hf14     1.0000 0.25269  0.26084  0.85160  Biso   1.000  Hf
  Hf15     1.0000 0.71179  0.23789  0.63982  Biso   1.000  Hf
  Hf16     1.0000 0.78251  0.98439  0.87109  Biso   1.000  Hf
  Hf17     1.0000 0.98941  0.13827  0.51777  Biso   1.000  Hf
  Hf18     1.0000 0.00494  0.12079  0.76777  Biso   1.000  Hf
  Hf19     1.0000 0.99582  0.37695  0.72366  Biso   1.000  Hf
  Hf20     1.0000 0.09256  0.40350  0.46243  Biso   1.000  Hf
  Hf21     1.0000 0.52478  0.11946  0.77332  Biso   1.000  Hf
  Hf22     1.0000 0.51708  0.09740  0.50387  Biso   1.000  Hf
  Hf23     1.0000 0.59326  0.36904  0.49720  Biso   1.000  Hf
  Hf24     1.0000 0.51429  0.38409  0.76557  Biso   1.000  Hf
  Hf25     1.0000 0.23935  0.52583  0.13830  Biso   1.000  Hf
  Hf26     1.0000 0.30346  0.74828  0.39042  Biso   1.000  Hf
  Hf27     1.0000 0.73070  0.74754  0.12806  Biso   1.000  Hf
  Hf28     1.0000 0.79159  0.50908  0.38067  Biso   1.000  Hf
  Hf29     1.0000 0.92118  0.59850  0.02354  Biso   1.000  Hf
  Hf30     1.0000 0.03320  0.65203  0.26452  Biso   1.000  Hf
  Hf31     1.0000 0.92293  0.90475  0.22082  Biso   1.000  Hf
  Hf32     1.0000 0.02817  0.84954  0.97978  Biso   1.000  Hf
  Hf33     1.0000 0.54138  0.61647  0.25424  Biso   1.000  Hf
  Hf34     1.0000 0.42597  0.64541  0.01004  Biso   1.000  Hf
  Hf35     1.0000 0.53031  0.88585  0.99135  Biso   1.000  Hf
  Hf36     1.0000 0.43410  0.85353  0.23584  Biso   1.000  Hf
  Hf37     1.0000 0.28503  0.48387  0.61902  Biso   1.000  Hf
  Hf38     1.0000 0.29453  0.75783  0.85723  Biso   1.000  Hf
  Hf39     1.0000 0.77120  0.73887  0.63070  Biso   1.000  Hf
  Hf40     1.0000 0.80373  0.49674  0.86168  Biso   1.000  Hf
  Hf41     1.0000 0.01709  0.63733  0.51204  Biso   1.000  Hf
  Hf42     1.0000 0.06028  0.61681  0.76362  Biso   1.000  Hf
  Hf43     1.0000 0.00865  0.87618  0.73194  Biso   1.000  Hf
  Hf44     1.0000 0.12422  0.90681  0.47239  Biso   1.000  Hf
  Hf45     1.0000 0.56196  0.62967  0.75714  Biso   1.000  Hf
  Hf46     1.0000 0.51058  0.61318  0.50670  Biso   1.000  Hf
  Hf47     1.0000 0.63689  0.84602  0.47551  Biso   1.000  Hf
  Hf48     1.0000 0.50539  0.87528  0.73355  Biso   1.000  Hf
  W1       1.0000 0.17037  0.25127  0.12675  Biso   1.000  W 
