data_image0
_cell_length_a       10.1895
_cell_length_b       10.3171
_cell_length_c       10.4704
_cell_angle_alpha    90.2362
_cell_angle_beta     79.9864
_cell_angle_gamma    90.0003

_symmetry_space_group_name_H-M    "P 1"
_symmetry_int_tables_number       1

loop_
  _symmetry_equiv_pos_as_xyz
  'x, y, z'

loop_
  _atom_site_label
  _atom_site_occupancy
  _atom_site_fract_x
  _atom_site_fract_y
  _atom_site_fract_z
  _atom_site_thermal_displace_type
  _atom_site_B_iso_or_equiv
  _atom_site_type_symbol
  Hf1      1.0000 0.13744  0.02157  0.14710  Biso   1.000  Hf
  Hf2      1.0000 0.12607  0.22889  0.39379  Biso   1.000  Hf
  Hf3      1.0000 0.35779  0.27643  0.11058  Biso   1.000  Hf
  Hf4      1.0000 0.36155  0.48385  0.34202  Biso   1.000  Hf
  O1       1.0000 0.03354  0.16865  0.07995  Biso   1.000  O
  O2       1.0000 0.03053  0.08003  0.32626  Biso   1.000  O
  O3       1.0000 0.46109  0.43491  0.15521  Biso   1.000  O
  O4       1.0000 0.49984  0.36681  0.42586  Biso   1.000  O
  O5       1.0000 0.27758  0.12631  0.24744  Biso   1.000  O
  O6       1.0000 0.26709  0.10454  0.48756  Biso   1.000  O
  O7       1.0000 0.22219  0.38077  0.00723  Biso   1.000  O
  O8       1.0000 0.20214  0.37701  0.25343  Biso   1.000  O
  Hf5      1.0000 0.13603  0.01927  0.64664  Biso   1.000  Hf
  Hf6      1.0000 0.13745  0.22928  0.89917  Biso   1.000  Hf
  Hf7      1.0000 0.36738  0.27090  0.62287  Biso   1.000  Hf
  Hf8      1.0000 0.36143  0.47966  0.85841  Biso   1.000  Hf
  O9       1.0000 0.03424  0.16872  0.57950  Biso   1.000  O
  O10      1.0000 0.03427  0.08240  0.82882  Biso   1.000  O
  O11      1.0000 0.46741  0.41912  0.67960  Biso   1.000  O
  O12      1.0000 0.46284  0.33060  0.92158  Biso   1.000  O
  O13      1.0000 0.27447  0.12806  0.74439  Biso   1.000  O
  O14      1.0000 0.27454  0.12184  0.99479  Biso   1.000  O
  O15      1.0000 0.24864  0.36005  0.49716  Biso   1.000  O
  O16      1.0000 0.22055  0.37426  0.76167  Biso   1.000  O
  Hf9      1.0000 0.13566  0.52215  0.14344  Biso   1.000  Hf
  Hf10     1.0000 0.13575  0.72478  0.39733  Biso   1.000  Hf
  Hf11     1.0000 0.36015  0.77067  0.10118  Biso   1.000  Hf
  Hf12     1.0000 0.35786  0.96155  0.35341  Biso   1.000  Hf
  O17      1.0000 0.03216  0.67006  0.07540  Biso   1.000  O
  O18      1.0000 0.03108  0.58419  0.32681  Biso   1.000  O
  O19      1.0000 0.46329  0.91774  0.16902  Biso   1.000  O
  O20      1.0000 0.46464  0.82661  0.42351  Biso   1.000  O
  O21      1.0000 0.27261  0.63120  0.23896  Biso   1.000  O
  O22      1.0000 0.27182  0.61465  0.49164  Biso   1.000  O
  O23      1.0000 0.22281  0.87976  0.00926  Biso   1.000  O
  O24      1.0000 0.21989  0.86765  0.25829  Biso   1.000  O
  Hf13     1.0000 0.14079  0.51866  0.64574  Biso   1.000  Hf
  Hf14     1.0000 0.13678  0.72960  0.89493  Biso   1.000  Hf
  Hf15     1.0000 0.36118  0.76878  0.60621  Biso   1.000  Hf
  Hf16     1.0000 0.36006  0.97900  0.85606  Biso   1.000  Hf
  O25      1.0000 0.03217  0.66385  0.57929  Biso   1.000  O
  O26      1.0000 0.03550  0.58309  0.82477  Biso   1.000  O
  O27      1.0000 0.46356  0.91842  0.67074  Biso   1.000  O
  O28      1.0000 0.46363  0.83174  0.91850  Biso   1.000  O
  O29      1.0000 0.27590  0.62812  0.74070  Biso   1.000  O
  O30      1.0000 0.27464  0.62356  0.98986  Biso   1.000  O
  O31      1.0000 0.22169  0.86898  0.51203  Biso   1.000  O
  O32      1.0000 0.22328  0.87171  0.75999  Biso   1.000  O
  Hf17     1.0000 0.63850  0.02191  0.14439  Biso   1.000  Hf
  Hf18     1.0000 0.65319  0.23175  0.40014  Biso   1.000  Hf
  Hf19     1.0000 0.85971  0.27278  0.10385  Biso   1.000  Hf
  Hf20     1.0000 0.86023  0.48120  0.35193  Biso   1.000  Hf
  O33      1.0000 0.53432  0.17074  0.08393  Biso   1.000  O
  O34      1.0000 0.53573  0.07601  0.33271  Biso   1.000  O
  O35      1.0000 0.96061  0.42229  0.16650  Biso   1.000  O
  O36      1.0000 0.95952  0.33452  0.42102  Biso   1.000  O
  O37      1.0000 0.77615  0.12876  0.23987  Biso   1.000  O
  O38      1.0000 0.78218  0.11769  0.49351  Biso   1.000  O
  O39      1.0000 0.72370  0.37981  0.00928  Biso   1.000  O
  O40      1.0000 0.72595  0.37240  0.25786  Biso   1.000  O
  Hf21     1.0000 0.63912  0.01943  0.64766  Biso   1.000  Hf
  Hf22     1.0000 0.63571  0.22971  0.89843  Biso   1.000  Hf
  Hf23     1.0000 0.86053  0.27087  0.60803  Biso   1.000  Hf
  Hf24     1.0000 0.86211  0.47836  0.85371  Biso   1.000  Hf
  O41      1.0000 0.54250  0.17086  0.58371  Biso   1.000  O
  O42      1.0000 0.53412  0.08076  0.83194  Biso   1.000  O
  O43      1.0000 0.96848  0.41566  0.67020  Biso   1.000  O
  O44      1.0000 0.96430  0.33200  0.92025  Biso   1.000  O
  O45      1.0000 0.77438  0.12895  0.74278  Biso   1.000  O
  O46      1.0000 0.77420  0.12189  0.99103  Biso   1.000  O
  O47      1.0000 0.72847  0.37967  0.51402  Biso   1.000  O
  O48      1.0000 0.72542  0.37145  0.76184  Biso   1.000  O
  Hf25     1.0000 0.63923  0.52558  0.14255  Biso   1.000  Hf
  Hf26     1.0000 0.63959  0.72739  0.39527  Biso   1.000  Hf
  Hf27     1.0000 0.86052  0.77269  0.10227  Biso   1.000  Hf
  Hf28     1.0000 0.85935  0.97576  0.35368  Biso   1.000  Hf
  O49      1.0000 0.53723  0.67440  0.07724  Biso   1.000  O
  O50      1.0000 0.53502  0.59013  0.32094  Biso   1.000  O
  O51      1.0000 0.96429  0.91807  0.16874  Biso   1.000  O
  O52      1.0000 0.96408  0.83140  0.42097  Biso   1.000  O
  O53      1.0000 0.77696  0.63146  0.23898  Biso   1.000  O
  O54      1.0000 0.77502  0.62140  0.48968  Biso   1.000  O
  O55      1.0000 0.72354  0.88092  0.00881  Biso   1.000  O
  O56      1.0000 0.72173  0.87233  0.25937  Biso   1.000  O
  Hf29     1.0000 0.63945  0.52248  0.64720  Biso   1.000  Hf
  Hf30     1.0000 0.63837  0.73002  0.89504  Biso   1.000  Hf
  Hf31     1.0000 0.86127  0.77053  0.60360  Biso   1.000  Hf
  Hf32     1.0000 0.86035  0.98014  0.85415  Biso   1.000  Hf
  O57      1.0000 0.53469  0.66514  0.57898  Biso   1.000  O
  O58      1.0000 0.53553  0.58317  0.83144  Biso   1.000  O
  O59      1.0000 0.96401  0.91812  0.66990  Biso   1.000  O
  O60      1.0000 0.96357  0.83285  0.91824  Biso   1.000  O
  O61      1.0000 0.77609  0.62870  0.73952  Biso   1.000  O
  O62      1.0000 0.77616  0.62220  0.98835  Biso   1.000  O
  O63      1.0000 0.72309  0.87762  0.51007  Biso   1.000  O
  O64      1.0000 0.72448  0.87138  0.75935  Biso   1.000  O
  W1       1.0000 0.39551  0.22617  0.37395  Biso   1.000  W
