data_image0
_cell_length_a       9.93304
_cell_length_b       5.17355
_cell_length_c       9.9816
_cell_angle_alpha    89.9038
_cell_angle_beta     89.9419
_cell_angle_gamma    89.9926

_symmetry_space_group_name_H-M    "P 1"
_symmetry_int_tables_number       1

loop_
  _symmetry_equiv_pos_as_xyz
  'x, y, z'

loop_
  _atom_site_label
  _atom_site_occupancy
  _atom_site_fract_x
  _atom_site_fract_y
  _atom_site_fract_z
  _atom_site_thermal_displace_type
  _atom_site_B_iso_or_equiv
  _atom_site_type_symbol
  W1       1.0000 0.13785  0.03941  0.12576  Biso   1.000  W 
  Hf1      1.0000 0.13288  0.46622  0.37495  Biso   1.000  Hf
  Hf2      1.0000 0.36576  0.53845  0.12607  Biso   1.000  Hf
  Hf3      1.0000 0.36513  0.96772  0.37523  Biso   1.000  Hf
  Hf4      1.0000 0.04005  0.36123  0.19107  Biso   1.000  Hf
  Hf5      1.0000 0.03431  0.13546  0.44831  Biso   1.000  Hf
  Hf6      1.0000 0.46423  0.86942  0.19416  Biso   1.000  Hf
  Hf7      1.0000 0.46330  0.63234  0.44287  Biso   1.000  Hf
  Hf8      1.0000 0.27110  0.23986  0.24714  Biso   1.000  Hf
  Hf9      1.0000 0.27038  0.26436  0.49889  Biso   1.000  Hf
  Hf10     1.0000 0.22878  0.76418  0.49961  Biso   1.000  Hf
  Hf11     1.0000 0.22597  0.74412  0.24854  Biso   1.000  Hf
  Hf12     1.0000 0.13391  0.03237  0.62663  Biso   1.000  Hf
  Hf13     1.0000 0.13324  0.46540  0.87806  Biso   1.000  Hf
  Hf14     1.0000 0.36553  0.53313  0.62568  Biso   1.000  Hf
  Hf15     1.0000 0.36459  0.96624  0.87666  Biso   1.000  Hf
  Hf16     1.0000 0.03414  0.36338  0.69942  Biso   1.000  Hf
  Hf17     1.0000 0.03658  0.12717  0.95639  Biso   1.000  Hf
  Hf18     1.0000 0.46227  0.86969  0.69364  Biso   1.000  Hf
  Hf19     1.0000 0.46083  0.62925  0.94333  Biso   1.000  Hf
  Hf20     1.0000 0.27056  0.23578  0.75049  Biso   1.000  Hf
  Hf21     1.0000 0.26991  0.25931  0.00207  Biso   1.000  Hf
  Hf22     1.0000 0.22395  0.76447  0.00147  Biso   1.000  Hf
  Hf23     1.0000 0.22874  0.73352  0.75077  Biso   1.000  Hf
  Hf24     1.0000 0.63519  0.03461  0.12565  Biso   1.000  Hf
  Hf25     1.0000 0.63488  0.46861  0.37477  Biso   1.000  Hf
  Hf26     1.0000 0.86892  0.53363  0.12450  Biso   1.000  Hf
  Hf27     1.0000 0.86778  0.96747  0.37491  Biso   1.000  Hf
  Hf28     1.0000 0.53743  0.37142  0.19256  Biso   1.000  Hf
  Hf29     1.0000 0.53616  0.13284  0.44268  Biso   1.000  Hf
  Hf30     1.0000 0.97312  0.86374  0.19246  Biso   1.000  Hf
  Hf31     1.0000 0.96459  0.63265  0.44596  Biso   1.000  Hf
  Hf32     1.0000 0.77277  0.23641  0.24914  Biso   1.000  Hf
  Hf33     1.0000 0.77048  0.26496  0.49919  Biso   1.000  Hf
  Hf34     1.0000 0.72956  0.76536  0.49871  Biso   1.000  Hf
  Hf35     1.0000 0.73295  0.73790  0.24845  Biso   1.000  Hf
  Hf36     1.0000 0.63343  0.03278  0.62506  Biso   1.000  Hf
  Hf37     1.0000 0.63353  0.46625  0.87574  Biso   1.000  Hf
  Hf38     1.0000 0.86565  0.53188  0.62651  Biso   1.000  Hf
  Hf39     1.0000 0.86630  0.96702  0.87624  Biso   1.000  Hf
  Hf40     1.0000 0.53631  0.36960  0.69329  Biso   1.000  Hf
  Hf41     1.0000 0.53591  0.12980  0.94348  Biso   1.000  Hf
  Hf42     1.0000 0.96385  0.86690  0.69541  Biso   1.000  Hf
  Hf43     1.0000 0.96096  0.62777  0.94154  Biso   1.000  Hf
  Hf44     1.0000 0.76959  0.23425  0.74963  Biso   1.000  Hf
  Hf45     1.0000 0.77068  0.26399  0.99925  Biso   1.000  Hf
  Hf46     1.0000 0.72866  0.76432  0.99905  Biso   1.000  Hf
  Hf47     1.0000 0.72862  0.73549  0.74935  Biso   1.000  Hf
