data_image0
_cell_length_a       10.0671
_cell_length_b       10.6228
_cell_length_c       5.05155
_cell_angle_alpha    89.9201
_cell_angle_beta     89.6673
_cell_angle_gamma    89.9735

_symmetry_space_group_name_H-M    "P 1"
_symmetry_int_tables_number       1

loop_
  _symmetry_equiv_pos_as_xyz
  'x, y, z'

loop_
  _atom_site_label
  _atom_site_occupancy
  _atom_site_fract_x
  _atom_site_fract_y
  _atom_site_fract_z
  _atom_site_thermal_displace_type
  _atom_site_B_iso_or_equiv
  _atom_site_type_symbol
  Hf1      1.0000 0.13232  0.00666  0.24790  Biso   1.000  Hf
  Hf2      1.0000 0.12638  0.20939  0.73539  Biso   1.000  Hf
  Hf3      1.0000 0.38737  0.27543  0.24512  Biso   1.000  Hf
  Hf4      1.0000 0.36847  0.48947  0.74059  Biso   1.000  Hf
  Hf5      1.0000 0.00554  0.16288  0.41411  Biso   1.000  Hf
  Hf6      1.0000 0.02424  0.05776  0.91275  Biso   1.000  Hf
  Hf7      1.0000 0.48062  0.43279  0.40840  Biso   1.000  Hf
  Hf8      1.0000 0.47868  0.32470  0.89942  Biso   1.000  Hf
  Hf9      1.0000 0.25171  0.08512  0.53317  Biso   1.000  Hf
  Hf10     1.0000 0.25013  0.16089  0.05385  Biso   1.000  Hf
  Hf11     1.0000 0.25997  0.41739  0.04266  Biso   1.000  Hf
  Hf12     1.0000 0.25689  0.33972  0.54802  Biso   1.000  Hf
  Hf13     1.0000 0.12678  0.54515  0.21460  Biso   1.000  Hf
  Hf14     1.0000 0.12880  0.74266  0.73097  Biso   1.000  Hf
  Hf15     1.0000 0.37168  0.75993  0.23510  Biso   1.000  Hf
  Hf16     1.0000 0.37828  0.97417  0.73120  Biso   1.000  Hf
  Hf17     1.0000 0.02353  0.68975  0.39881  Biso   1.000  Hf
  Hf18     1.0000 0.03172  0.57389  0.86480  Biso   1.000  Hf
  Hf19     1.0000 0.46999  0.92399  0.38598  Biso   1.000  Hf
  Hf20     1.0000 0.47369  0.81557  0.88781  Biso   1.000  Hf
  Hf21     1.0000 0.27102  0.61110  0.47757  Biso   1.000  Hf
  Hf22     1.0000 0.26712  0.65350  0.96694  Biso   1.000  Hf
  Hf23     1.0000 0.23740  0.89565  0.98142  Biso   1.000  Hf
  Hf24     1.0000 0.23546  0.85242  0.47366  Biso   1.000  Hf
  Hf25     1.0000 0.63278  0.01225  0.24481  Biso   1.000  Hf
  Hf26     1.0000 0.63228  0.23152  0.74520  Biso   1.000  Hf
  Hf27     1.0000 0.85427  0.26130  0.23997  Biso   1.000  Hf
  Hf28     1.0000 0.86889  0.47980  0.74056  Biso   1.000  Hf
  Hf29     1.0000 0.52835  0.17087  0.41518  Biso   1.000  Hf
  Hf30     1.0000 0.52303  0.07204  0.91125  Biso   1.000  Hf
  Hf31     1.0000 0.97284  0.42827  0.39360  Biso   1.000  Hf
  Hf32     1.0000 0.97356  0.32117  0.90921  Biso   1.000  Hf
  Hf33     1.0000 0.75988  0.10753  0.49520  Biso   1.000  Hf
  Hf34     1.0000 0.76236  0.13293  0.99095  Biso   1.000  Hf
  Hf35     1.0000 0.73368  0.38574  0.99438  Biso   1.000  Hf
  Hf36     1.0000 0.73337  0.36115  0.50031  Biso   1.000  Hf
  Hf37     1.0000 0.63743  0.51660  0.24230  Biso   1.000  Hf
  Hf38     1.0000 0.63639  0.72886  0.74376  Biso   1.000  Hf
  Hf39     1.0000 0.86191  0.76714  0.24385  Biso   1.000  Hf
  Hf40     1.0000 0.86497  0.98172  0.74313  Biso   1.000  Hf
  Hf41     1.0000 0.53593  0.67960  0.39492  Biso   1.000  Hf
  Hf42     1.0000 0.53228  0.57129  0.90347  Biso   1.000  Hf
  Hf43     1.0000 0.96776  0.92491  0.40700  Biso   1.000  Hf
  Hf44     1.0000 0.96666  0.81902  0.90318  Biso   1.000  Hf
  Hf45     1.0000 0.76959  0.61008  0.49352  Biso   1.000  Hf
  Hf46     1.0000 0.77077  0.63446  0.99212  Biso   1.000  Hf
  Hf47     1.0000 0.73065  0.88520  0.99291  Biso   1.000  Hf
  Hf48     1.0000 0.72978  0.86140  0.49415  Biso   1.000  Hf
  W1       1.0000 0.11806  0.30633  0.22830  Biso   1.000  W 
