data_image0
_cell_length_a       10.0757
_cell_length_b       10.2736
_cell_length_c       10.4821
_cell_angle_alpha    89.6947
_cell_angle_beta     90.4536
_cell_angle_gamma    89.9508

_symmetry_space_group_name_H-M    "P 1"
_symmetry_int_tables_number       1

loop_
  _symmetry_equiv_pos_as_xyz
  'x, y, z'

loop_
  _atom_site_label
  _atom_site_occupancy
  _atom_site_fract_x
  _atom_site_fract_y
  _atom_site_fract_z
  _atom_site_thermal_displace_type
  _atom_site_B_iso_or_equiv
  _atom_site_type_symbol
  Hf1      1.0000 0.13864  0.01963  0.17152  Biso   1.000  Hf
  Hf2      1.0000 0.13533  0.22975  0.42384  Biso   1.000  Hf
  Hf3      1.0000 0.34941  0.26819  0.17807  Biso   1.000  Hf
  Hf4      1.0000 0.36078  0.48027  0.42363  Biso   1.000  Hf
  Hf5      1.0000 0.63880  0.01304  0.06822  Biso   1.000  Hf
  Hf6      1.0000 0.63460  0.23118  0.34595  Biso   1.000  Hf
  Hf7      1.0000 0.87437  0.27058  0.07300  Biso   1.000  Hf
  Hf8      1.0000 0.86387  0.48098  0.32909  Biso   1.000  Hf
  O1       1.0000 0.03929  0.16344  0.07986  Biso   1.000  O
  O2       1.0000 0.02616  0.09069  0.32873  Biso   1.000  O
  O3       1.0000 0.46542  0.42145  0.08628  Biso   1.000  O
  O4       1.0000 0.45994  0.33136  0.33940  Biso   1.000  O
  O5       1.0000 0.26759  0.12435  0.29903  Biso   1.000  O
  O6       1.0000 0.27594  0.12287  0.04317  Biso   1.000  O
  O7       1.0000 0.21896  0.37612  0.29839  Biso   1.000  O
  O8       1.0000 0.22343  0.37580  0.04377  Biso   1.000  O
  O9       1.0000 0.50161  0.13159  0.17697  Biso   1.000  O
  O10      1.0000 0.53057  0.08569  0.42576  Biso   1.000  O
  O11      1.0000 0.97023  0.41504  0.16874  Biso   1.000  O
  O12      1.0000 0.96579  0.33763  0.42037  Biso   1.000  O
  O13      1.0000 0.77925  0.12153  0.45728  Biso   1.000  O
  O14      1.0000 0.75320  0.14111  0.19761  Biso   1.000  O
  O15      1.0000 0.72454  0.37419  0.46096  Biso   1.000  O
  O16      1.0000 0.72492  0.38964  0.20837  Biso   1.000  O
  Hf9      1.0000 0.14085  0.02045  0.67051  Biso   1.000  Hf
  Hf10     1.0000 0.14412  0.22649  0.91808  Biso   1.000  Hf
  Hf11     1.0000 0.36540  0.26994  0.67280  Biso   1.000  Hf
  Hf12     1.0000 0.36105  0.47908  0.91925  Biso   1.000  Hf
  Hf13     1.0000 0.63930  0.02093  0.58244  Biso   1.000  Hf
  Hf14     1.0000 0.64312  0.22380  0.83568  Biso   1.000  Hf
  Hf15     1.0000 0.86181  0.27058  0.58297  Biso   1.000  Hf
  Hf16     1.0000 0.86314  0.48001  0.82933  Biso   1.000  Hf
  O17      1.0000 0.03331  0.16522  0.58414  Biso   1.000  O
  O18      1.0000 0.03902  0.08265  0.83102  Biso   1.000  O
  O19      1.0000 0.46816  0.41684  0.58625  Biso   1.000  O
  O20      1.0000 0.46822  0.33191  0.83902  Biso   1.000  O
  O21      1.0000 0.27960  0.12280  0.79374  Biso   1.000  O
  O22      1.0000 0.27599  0.12622  0.54588  Biso   1.000  O
  O23      1.0000 0.22648  0.37330  0.79413  Biso   1.000  O
  O24      1.0000 0.22483  0.37606  0.54637  Biso   1.000  O
  O25      1.0000 0.53591  0.16635  0.66852  Biso   1.000  O
  O26      1.0000 0.53548  0.06876  0.90322  Biso   1.000  O
  O27      1.0000 0.96713  0.41618  0.66722  Biso   1.000  O
  O28      1.0000 0.97170  0.33452  0.91244  Biso   1.000  O
  O29      1.0000 0.79625  0.11535  0.94793  Biso   1.000  O
  O30      1.0000 0.77861  0.12444  0.70414  Biso   1.000  O
  O31      1.0000 0.72630  0.37792  0.96417  Biso   1.000  O
  O32      1.0000 0.72570  0.37550  0.71133  Biso   1.000  O
  Hf17     1.0000 0.14014  0.52155  0.17154  Biso   1.000  Hf
  Hf18     1.0000 0.13774  0.72992  0.42095  Biso   1.000  Hf
  Hf19     1.0000 0.35986  0.77200  0.17258  Biso   1.000  Hf
  Hf20     1.0000 0.36143  0.97903  0.42368  Biso   1.000  Hf
  Hf21     1.0000 0.64176  0.53748  0.07745  Biso   1.000  Hf
  Hf22     1.0000 0.63901  0.73160  0.32982  Biso   1.000  Hf
  Hf23     1.0000 0.86519  0.77372  0.07838  Biso   1.000  Hf
  Hf24     1.0000 0.85902  0.98084  0.32753  Biso   1.000  Hf
  O33      1.0000 0.03457  0.66519  0.08298  Biso   1.000  O
  O34      1.0000 0.03282  0.58734  0.33184  Biso   1.000  O
  O35      1.0000 0.46688  0.90532  0.07592  Biso   1.000  O
  O36      1.0000 0.46714  0.83776  0.33315  Biso   1.000  O
  O37      1.0000 0.27519  0.62477  0.29591  Biso   1.000  O
  O38      1.0000 0.27799  0.62467  0.04488  Biso   1.000  O
  O39      1.0000 0.22339  0.87448  0.29577  Biso   1.000  O
  O40      1.0000 0.22167  0.87440  0.04598  Biso   1.000  O
  O41      1.0000 0.53193  0.66827  0.17022  Biso   1.000  O
  O42      1.0000 0.53368  0.58462  0.41699  Biso   1.000  O
  O43      1.0000 0.96566  0.91930  0.16555  Biso   1.000  O
  O44      1.0000 0.96530  0.83773  0.41402  Biso   1.000  O
  O45      1.0000 0.77657  0.62409  0.45447  Biso   1.000  O
  O46      1.0000 0.77902  0.63403  0.20518  Biso   1.000  O
  O47      1.0000 0.72302  0.87476  0.45533  Biso   1.000  O
  O48      1.0000 0.72605  0.87848  0.20518  Biso   1.000  O
  Hf25     1.0000 0.13871  0.52030  0.67053  Biso   1.000  Hf
  Hf26     1.0000 0.14012  0.72770  0.92123  Biso   1.000  Hf
  Hf27     1.0000 0.36219  0.76952  0.67075  Biso   1.000  Hf
  Hf28     1.0000 0.36090  0.97430  0.91961  Biso   1.000  Hf
  Hf29     1.0000 0.63998  0.52101  0.57982  Biso   1.000  Hf
  Hf30     1.0000 0.64001  0.72931  0.82526  Biso   1.000  Hf
  Hf31     1.0000 0.86205  0.77177  0.57708  Biso   1.000  Hf
  Hf32     1.0000 0.86651  0.97689  0.82621  Biso   1.000  Hf
  O49      1.0000 0.03290  0.66508  0.58100  Biso   1.000  O
  O50      1.0000 0.03429  0.58483  0.83199  Biso   1.000  O
  O51      1.0000 0.46720  0.91424  0.58505  Biso   1.000  O
  O52      1.0000 0.46643  0.82943  0.83126  Biso   1.000  O
  O53      1.0000 0.27660  0.62217  0.79408  Biso   1.000  O
  O54      1.0000 0.27496  0.62596  0.54468  Biso   1.000  O
  O55      1.0000 0.22484  0.87177  0.79419  Biso   1.000  O
  O56      1.0000 0.22475  0.87564  0.54416  Biso   1.000  O
  O57      1.0000 0.53408  0.66510  0.66449  Biso   1.000  O
  O58      1.0000 0.53415  0.58547  0.91499  Biso   1.000  O
  O59      1.0000 0.97041  0.91406  0.66291  Biso   1.000  O
  O60      1.0000 0.97136  0.83427  0.91674  Biso   1.000  O
  O61      1.0000 0.77956  0.62687  0.95273  Biso   1.000  O
  O62      1.0000 0.77776  0.62567  0.70382  Biso   1.000  O
  O63      1.0000 0.72766  0.86988  0.95213  Biso   1.000  O
  O64      1.0000 0.72639  0.87447  0.70382  Biso   1.000  O
  W1       1.0000 0.60586  0.27187  0.10288  Biso   1.000  W
