data_image0
_cell_length_a       10.0509
_cell_length_b       10.3149
_cell_length_c       5.30951
_cell_angle_alpha    89.9608
_cell_angle_beta     91.5814
_cell_angle_gamma    91.1275

_symmetry_space_group_name_H-M    "P 1"
_symmetry_int_tables_number       1

loop_
  _symmetry_equiv_pos_as_xyz
  'x, y, z'

loop_
  _atom_site_label
  _atom_site_occupancy
  _atom_site_fract_x
  _atom_site_fract_y
  _atom_site_fract_z
  _atom_site_thermal_displace_type
  _atom_site_B_iso_or_equiv
  _atom_site_type_symbol
  Hf1      1.0000 0.14186  0.02126  0.35103  Biso   1.000  Hf
  Hf2      1.0000 0.13905  0.22855  0.86072  Biso   1.000  Hf
  Hf3      1.0000 0.34548  0.27792  0.39080  Biso   1.000  Hf
  Hf4      1.0000 0.35568  0.48857  0.85991  Biso   1.000  Hf
  Hf5      1.0000 0.65099  0.00948  0.15262  Biso   1.000  Hf
  Hf6      1.0000 0.65762  0.21652  0.60591  Biso   1.000  Hf
  Hf7      1.0000 0.86233  0.26823  0.14319  Biso   1.000  Hf
  Hf8      1.0000 0.85984  0.47528  0.65366  Biso   1.000  Hf
  O1       1.0000 0.03680  0.16131  0.16905  Biso   1.000  O
  O2       1.0000 0.03855  0.08438  0.66764  Biso   1.000  O
  O3       1.0000 0.45529  0.44101  0.19995  Biso   1.000  O
  O4       1.0000 0.47277  0.33680  0.67159  Biso   1.000  O
  O5       1.0000 0.27585  0.12615  0.60967  Biso   1.000  O
  O6       1.0000 0.28735  0.13262  0.10007  Biso   1.000  O
  O7       1.0000 0.21631  0.37855  0.62028  Biso   1.000  O
  O8       1.0000 0.21749  0.37945  0.11524  Biso   1.000  O
  O9       1.0000 0.52144  0.13886  0.36360  Biso   1.000  O
  O10      1.0000 0.54097  0.08083  0.83858  Biso   1.000  O
  O11      1.0000 0.96342  0.41193  0.34380  Biso   1.000  O
  O12      1.0000 0.97051  0.33688  0.84257  Biso   1.000  O
  O13      1.0000 0.78760  0.11757  0.88873  Biso   1.000  O
  O14      1.0000 0.79511  0.11565  0.39610  Biso   1.000  O
  O15      1.0000 0.72169  0.37337  0.89450  Biso   1.000  O
  O16      1.0000 0.71334  0.37202  0.37654  Biso   1.000  O
  Hf9      1.0000 0.13593  0.52226  0.35124  Biso   1.000  Hf
  Hf10     1.0000 0.13890  0.72956  0.84659  Biso   1.000  Hf
  Hf11     1.0000 0.36406  0.77424  0.35158  Biso   1.000  Hf
  Hf12     1.0000 0.36446  0.97657  0.85283  Biso   1.000  Hf
  Hf13     1.0000 0.64009  0.53424  0.15516  Biso   1.000  Hf
  Hf14     1.0000 0.64160  0.72950  0.65738  Biso   1.000  Hf
  Hf15     1.0000 0.86700  0.76766  0.16106  Biso   1.000  Hf
  Hf16     1.0000 0.86875  0.97440  0.66021  Biso   1.000  Hf
  O17      1.0000 0.03445  0.66141  0.16550  Biso   1.000  O
  O18      1.0000 0.03065  0.58611  0.66840  Biso   1.000  O
  O19      1.0000 0.47413  0.90747  0.15765  Biso   1.000  O
  O20      1.0000 0.47261  0.83918  0.66638  Biso   1.000  O
  O21      1.0000 0.27392  0.62798  0.59471  Biso   1.000  O
  O22      1.0000 0.27481  0.63068  0.09261  Biso   1.000  O
  O23      1.0000 0.22791  0.87501  0.59890  Biso   1.000  O
  O24      1.0000 0.22635  0.87956  0.09885  Biso   1.000  O
  O25      1.0000 0.53478  0.67156  0.34014  Biso   1.000  O
  O26      1.0000 0.53092  0.58945  0.83747  Biso   1.000  O
  O27      1.0000 0.97568  0.90876  0.34386  Biso   1.000  O
  O28      1.0000 0.97241  0.83557  0.84623  Biso   1.000  O
  O29      1.0000 0.78007  0.62515  0.90487  Biso   1.000  O
  O30      1.0000 0.77988  0.62491  0.41272  Biso   1.000  O
  O31      1.0000 0.73026  0.87034  0.91523  Biso   1.000  O
  O32      1.0000 0.73244  0.86972  0.41353  Biso   1.000  O
  Y1       1.0000 0.53943  0.26584  0.04173  Biso   1.000  Y
