data_image0
_cell_length_a       10.0938
_cell_length_b       5.22987
_cell_length_c       10.1295
_cell_angle_alpha    89.6267
_cell_angle_beta     89.98
_cell_angle_gamma    89.6153

_symmetry_space_group_name_H-M    "P 1"
_symmetry_int_tables_number       1

loop_
  _symmetry_equiv_pos_as_xyz
  'x, y, z'

loop_
  _atom_site_label
  _atom_site_occupancy
  _atom_site_fract_x
  _atom_site_fract_y
  _atom_site_fract_z
  _atom_site_thermal_displace_type
  _atom_site_B_iso_or_equiv
  _atom_site_type_symbol
  Hf1      1.0000 0.13111  0.02179  0.12340  Biso   1.000  Hf
  Hf2      1.0000 0.13173  0.45880  0.39017  Biso   1.000  Hf
  Hf3      1.0000 0.38428  0.54390  0.11462  Biso   1.000  Hf
  Hf4      1.0000 0.36370  0.97716  0.37076  Biso   1.000  Hf
  Hf5      1.0000 0.99012  0.28614  0.24145  Biso   1.000  Hf
  Hf6      1.0000 0.03581  0.12902  0.46323  Biso   1.000  Hf
  Hf7      1.0000 0.46404  0.87659  0.19463  Biso   1.000  Hf
  Hf8      1.0000 0.46945  0.64955  0.44629  Biso   1.000  Hf
  Hf9      1.0000 0.25518  0.24529  0.24591  Biso   1.000  Hf
  Hf10     1.0000 0.27572  0.26463  0.49882  Biso   1.000  Hf
  Hf11     1.0000 0.23488  0.76830  0.49813  Biso   1.000  Hf
  Hf12     1.0000 0.23812  0.73354  0.25177  Biso   1.000  Hf
  Hf13     1.0000 0.13780  0.02034  0.62616  Biso   1.000  Hf
  Hf14     1.0000 0.13271  0.47719  0.84597  Biso   1.000  Hf
  Hf15     1.0000 0.37663  0.53808  0.61898  Biso   1.000  Hf
  Hf16     1.0000 0.36956  0.98270  0.87208  Biso   1.000  Hf
  Hf17     1.0000 0.02953  0.34590  0.69115  Biso   1.000  Hf
  Hf18     1.0000 0.02818  0.15124  0.95697  Biso   1.000  Hf
  Hf19     1.0000 0.47311  0.87042  0.69522  Biso   1.000  Hf
  Hf20     1.0000 0.47552  0.65302  0.94214  Biso   1.000  Hf
  Hf21     1.0000 0.26904  0.23265  0.74257  Biso   1.000  Hf
  Hf22     1.0000 0.26744  0.28881  0.99007  Biso   1.000  Hf
  Hf23     1.0000 0.23883  0.78775  0.99182  Biso   1.000  Hf
  Hf24     1.0000 0.24482  0.73351  0.74369  Biso   1.000  Hf
  Hf25     1.0000 0.62935  0.02904  0.12304  Biso   1.000  Hf
  Hf26     1.0000 0.63272  0.46878  0.37759  Biso   1.000  Hf
  Hf27     1.0000 0.84167  0.51479  0.12873  Biso   1.000  Hf
  Hf28     1.0000 0.88052  0.98176  0.36368  Biso   1.000  Hf
  Hf29     1.0000 0.53261  0.36381  0.20173  Biso   1.000  Hf
  Hf30     1.0000 0.53207  0.14299  0.44840  Biso   1.000  Hf
  Hf31     1.0000 0.96850  0.81261  0.19931  Biso   1.000  Hf
  Hf32     1.0000 0.97053  0.64912  0.45531  Biso   1.000  Hf
  Hf33     1.0000 0.75227  0.21862  0.24971  Biso   1.000  Hf
  Hf34     1.0000 0.77108  0.27917  0.49646  Biso   1.000  Hf
  Hf35     1.0000 0.73737  0.77955  0.49704  Biso   1.000  Hf
  Hf36     1.0000 0.72428  0.73310  0.25013  Biso   1.000  Hf
  Hf37     1.0000 0.63826  0.03253  0.62020  Biso   1.000  Hf
  Hf38     1.0000 0.63751  0.46719  0.86951  Biso   1.000  Hf
  Hf39     1.0000 0.86491  0.53659  0.62150  Biso   1.000  Hf
  Hf40     1.0000 0.87038  0.96240  0.87827  Biso   1.000  Hf
  Hf41     1.0000 0.53882  0.36847  0.69571  Biso   1.000  Hf
  Hf42     1.0000 0.53039  0.15348  0.94910  Biso   1.000  Hf
  Hf43     1.0000 0.98231  0.83997  0.71370  Biso   1.000  Hf
  Hf44     1.0000 0.96570  0.63309  0.95077  Biso   1.000  Hf
  Hf45     1.0000 0.77248  0.22684  0.74692  Biso   1.000  Hf
  Hf46     1.0000 0.76551  0.25788  0.99619  Biso   1.000  Hf
  Hf47     1.0000 0.72877  0.76401  0.99826  Biso   1.000  Hf
  Hf48     1.0000 0.73671  0.73316  0.74769  Biso   1.000  Hf
  Y1       1.0000 0.11321  0.51705  0.11178  Biso   1.000  Y 
