data_image0
_cell_length_a       10.037
_cell_length_b       5.09881
_cell_length_c       10.037
_cell_angle_alpha    90
_cell_angle_beta     90
_cell_angle_gamma    90

_symmetry_space_group_name_H-M    "P 1"
_symmetry_int_tables_number       1

loop_
  _symmetry_equiv_pos_as_xyz
  'x, y, z'

loop_
  _atom_site_label
  _atom_site_occupancy
  _atom_site_fract_x
  _atom_site_fract_y
  _atom_site_fract_z
  _atom_site_thermal_displace_type
  _atom_site_B_iso_or_equiv
  _atom_site_type_symbol
  Y1       1.0000 0.12491  0.00011  0.12491  Biso   1.000  Y 
  Hf1      1.0000 0.12491  0.50011  0.37438  Biso   1.000  Hf
  Hf2      1.0000 0.37438  0.50011  0.12491  Biso   1.000  Hf
  Hf3      1.0000 0.37432  0.99932  0.37432  Biso   1.000  Hf
  Hf4      1.0000 0.99857  0.28463  0.99857  Biso   1.000  Hf
  Hf5      1.0000 0.99167  0.23297  0.25815  Biso   1.000  Hf
  Hf6      1.0000 0.99857  0.71558  0.25125  Biso   1.000  Hf
  Hf7      1.0000 0.99167  0.76724  0.99167  Biso   1.000  Hf
  Hf8      1.0000 0.25125  0.28463  0.25125  Biso   1.000  Hf
  Hf9      1.0000 0.25815  0.23298  0.99167  Biso   1.000  Hf
  Hf10     1.0000 0.25125  0.71558  0.99857  Biso   1.000  Hf
  Hf11     1.0000 0.25815  0.76724  0.25815  Biso   1.000  Hf
  Hf12     1.0000 0.12491  0.00011  0.62491  Biso   1.000  Hf
  Hf13     1.0000 0.12491  0.50011  0.87544  Biso   1.000  Hf
  Hf14     1.0000 0.37451  0.50011  0.62491  Biso   1.000  Hf
  Hf15     1.0000 0.37432  0.00089  0.87550  Biso   1.000  Hf
  Hf16     1.0000 0.00450  0.29081  0.50644  Biso   1.000  Hf
  Hf17     1.0000 0.99774  0.20870  0.75193  Biso   1.000  Hf
  Hf18     1.0000 0.00451  0.70941  0.74338  Biso   1.000  Hf
  Hf19     1.0000 0.99774  0.79151  0.49789  Biso   1.000  Hf
  Hf20     1.0000 0.24531  0.29081  0.74338  Biso   1.000  Hf
  Hf21     1.0000 0.25208  0.20870  0.49789  Biso   1.000  Hf
  Hf22     1.0000 0.24531  0.70941  0.50644  Biso   1.000  Hf
  Hf23     1.0000 0.25208  0.79151  0.75193  Biso   1.000  Hf
  Hf24     1.0000 0.62491  0.00011  0.12491  Biso   1.000  Hf
  Hf25     1.0000 0.62491  0.50011  0.37451  Biso   1.000  Hf
  Hf26     1.0000 0.87544  0.50011  0.12491  Biso   1.000  Hf
  Hf27     1.0000 0.87550  0.00090  0.37432  Biso   1.000  Hf
  Hf28     1.0000 0.50644  0.29080  0.00451  Biso   1.000  Hf
  Hf29     1.0000 0.49789  0.20870  0.25207  Biso   1.000  Hf
  Hf30     1.0000 0.50644  0.70941  0.24531  Biso   1.000  Hf
  Hf31     1.0000 0.49789  0.79152  0.99774  Biso   1.000  Hf
  Hf32     1.0000 0.74338  0.29081  0.24531  Biso   1.000  Hf
  Hf33     1.0000 0.75193  0.20870  0.99774  Biso   1.000  Hf
  Hf34     1.0000 0.74338  0.70941  0.00450  Biso   1.000  Hf
  Hf35     1.0000 0.75193  0.79151  0.25207  Biso   1.000  Hf
  Hf36     1.0000 0.62491  0.00011  0.62491  Biso   1.000  Hf
  Hf37     1.0000 0.62491  0.50011  0.87531  Biso   1.000  Hf
  Hf38     1.0000 0.87531  0.50011  0.62491  Biso   1.000  Hf
  Hf39     1.0000 0.87550  0.99932  0.87550  Biso   1.000  Hf
  Hf40     1.0000 0.50315  0.29372  0.50315  Biso   1.000  Hf
  Hf41     1.0000 0.49818  0.20732  0.75163  Biso   1.000  Hf
  Hf42     1.0000 0.50315  0.70649  0.74667  Biso   1.000  Hf
  Hf43     1.0000 0.49819  0.79289  0.49818  Biso   1.000  Hf
  Hf44     1.0000 0.74666  0.29373  0.74667  Biso   1.000  Hf
  Hf45     1.0000 0.75163  0.20732  0.49819  Biso   1.000  Hf
  Hf46     1.0000 0.74666  0.70649  0.50315  Biso   1.000  Hf
  Hf47     1.0000 0.75163  0.79289  0.75163  Biso   1.000  Hf
