data_image0
_cell_length_a       9.99013
_cell_length_b       5.18285
_cell_length_c       10.0426
_cell_angle_alpha    90.0785
_cell_angle_beta     90.1592
_cell_angle_gamma    89.9716

_symmetry_space_group_name_H-M    "P 1"
_symmetry_int_tables_number       1

loop_
  _symmetry_equiv_pos_as_xyz
  'x, y, z'

loop_
  _atom_site_label
  _atom_site_occupancy
  _atom_site_fract_x
  _atom_site_fract_y
  _atom_site_fract_z
  _atom_site_thermal_displace_type
  _atom_site_B_iso_or_equiv
  _atom_site_type_symbol
  Yb1      1.0000 0.13082  0.03114  0.12104  Biso   1.000  Yb
  Hf1      1.0000 0.13541  0.46791  0.37724  Biso   1.000  Hf
  Hf2      1.0000 0.36553  0.53138  0.12733  Biso   1.000  Hf
  Hf3      1.0000 0.36392  0.96762  0.37475  Biso   1.000  Hf
  Hf4      1.0000 0.03245  0.37942  0.19988  Biso   1.000  Hf
  Hf5      1.0000 0.03541  0.13137  0.44511  Biso   1.000  Hf
  Hf6      1.0000 0.46407  0.86840  0.19482  Biso   1.000  Hf
  Hf7      1.0000 0.46421  0.63187  0.44582  Biso   1.000  Hf
  Hf8      1.0000 0.27663  0.24480  0.25275  Biso   1.000  Hf
  Hf9      1.0000 0.26998  0.26373  0.50106  Biso   1.000  Hf
  Hf10     1.0000 0.22952  0.76601  0.50053  Biso   1.000  Hf
  Hf11     1.0000 0.23311  0.72849  0.25285  Biso   1.000  Hf
  Hf12     1.0000 0.13359  0.03385  0.62640  Biso   1.000  Hf
  Hf13     1.0000 0.13510  0.46982  0.87409  Biso   1.000  Hf
  Hf14     1.0000 0.36613  0.53329  0.62558  Biso   1.000  Hf
  Hf15     1.0000 0.36732  0.96599  0.87543  Biso   1.000  Hf
  Hf16     1.0000 0.03802  0.37369  0.69061  Biso   1.000  Hf
  Hf17     1.0000 0.03374  0.14191  0.93174  Biso   1.000  Hf
  Hf18     1.0000 0.46477  0.86717  0.69496  Biso   1.000  Hf
  Hf19     1.0000 0.46762  0.63256  0.94493  Biso   1.000  Hf
  Hf20     1.0000 0.27147  0.23637  0.74910  Biso   1.000  Hf
  Hf21     1.0000 0.27413  0.26629  0.99616  Biso   1.000  Hf
  Hf22     1.0000 0.23577  0.75508  0.99634  Biso   1.000  Hf
  Hf23     1.0000 0.23013  0.73757  0.74842  Biso   1.000  Hf
  Hf24     1.0000 0.63331  0.03074  0.12589  Biso   1.000  Hf
  Hf25     1.0000 0.63231  0.46576  0.37657  Biso   1.000  Hf
  Hf26     1.0000 0.86203  0.53143  0.12674  Biso   1.000  Hf
  Hf27     1.0000 0.86491  0.96635  0.37893  Biso   1.000  Hf
  Hf28     1.0000 0.53824  0.36793  0.19367  Biso   1.000  Hf
  Hf29     1.0000 0.53528  0.13074  0.44469  Biso   1.000  Hf
  Hf30     1.0000 0.95509  0.86386  0.19966  Biso   1.000  Hf
  Hf31     1.0000 0.96405  0.63284  0.44650  Biso   1.000  Hf
  Hf32     1.0000 0.76985  0.23226  0.25005  Biso   1.000  Hf
  Hf33     1.0000 0.76912  0.26540  0.49989  Biso   1.000  Hf
  Hf34     1.0000 0.72895  0.76384  0.50056  Biso   1.000  Hf
  Hf35     1.0000 0.72572  0.73354  0.25059  Biso   1.000  Hf
  Hf36     1.0000 0.63317  0.03243  0.62548  Biso   1.000  Hf
  Hf37     1.0000 0.63444  0.46524  0.87527  Biso   1.000  Hf
  Hf38     1.0000 0.86613  0.53221  0.62525  Biso   1.000  Hf
  Hf39     1.0000 0.86457  0.96487  0.87465  Biso   1.000  Hf
  Hf40     1.0000 0.53604  0.36732  0.69467  Biso   1.000  Hf
  Hf41     1.0000 0.53755  0.13023  0.94413  Biso   1.000  Hf
  Hf42     1.0000 0.96332  0.86884  0.69429  Biso   1.000  Hf
  Hf43     1.0000 0.96700  0.63825  0.94867  Biso   1.000  Hf
  Hf44     1.0000 0.77078  0.23430  0.74873  Biso   1.000  Hf
  Hf45     1.0000 0.77115  0.26187  0.99907  Biso   1.000  Hf
  Hf46     1.0000 0.72962  0.76217  0.00000  Biso   1.000  Hf
  Hf47     1.0000 0.72984  0.73398  0.74986  Biso   1.000  Hf
