data_image0
_cell_length_a       10.1659
_cell_length_b       5.14071
_cell_length_c       10.4665
_cell_angle_alpha    90.0156
_cell_angle_beta     80.2362
_cell_angle_gamma    90.0224

_symmetry_space_group_name_H-M    "P 1"
_symmetry_int_tables_number       1

loop_
  _symmetry_equiv_pos_as_xyz
  'x, y, z'

loop_
  _atom_site_label
  _atom_site_occupancy
  _atom_site_fract_x
  _atom_site_fract_y
  _atom_site_fract_z
  _atom_site_thermal_displace_type
  _atom_site_B_iso_or_equiv
  _atom_site_type_symbol
  Yb1      1.0000 0.13768  0.03540  0.14799  Biso   1.000  Yb
  Hf1      1.0000 0.14027  0.45589  0.39664  Biso   1.000  Hf
  Hf2      1.0000 0.36137  0.53865  0.10306  Biso   1.000  Hf
  Hf3      1.0000 0.36087  0.95681  0.35381  Biso   1.000  Hf
  O1       1.0000 0.03462  0.35423  0.07867  Biso   1.000  O
  O2       1.0000 0.03007  0.16788  0.33748  Biso   1.000  O
  O3       1.0000 0.46473  0.83628  0.17005  Biso   1.000  O
  O4       1.0000 0.46427  0.66201  0.42118  Biso   1.000  O
  O5       1.0000 0.28112  0.26188  0.24552  Biso   1.000  O
  O6       1.0000 0.27587  0.24054  0.49238  Biso   1.000  O
  O7       1.0000 0.23007  0.75031  0.00358  Biso   1.000  O
  O8       1.0000 0.22765  0.73365  0.26083  Biso   1.000  O
  Hf4      1.0000 0.13991  0.04205  0.64640  Biso   1.000  Hf
  Hf5      1.0000 0.14039  0.45921  0.89608  Biso   1.000  Hf
  Hf6      1.0000 0.36088  0.54297  0.60441  Biso   1.000  Hf
  Hf7      1.0000 0.36180  0.95768  0.85453  Biso   1.000  Hf
  O9       1.0000 0.03519  0.33847  0.58138  Biso   1.000  O
  O10      1.0000 0.03527  0.16298  0.83016  Biso   1.000  O
  O11      1.0000 0.46531  0.83608  0.67031  Biso   1.000  O
  O12      1.0000 0.46946  0.66791  0.92006  Biso   1.000  O
  O13      1.0000 0.27616  0.25811  0.73996  Biso   1.000  O
  O14      1.0000 0.28173  0.24874  0.98568  Biso   1.000  O
  O15      1.0000 0.22367  0.75758  0.50988  Biso   1.000  O
  O16      1.0000 0.22405  0.74363  0.75818  Biso   1.000  O
  Hf8      1.0000 0.63776  0.03993  0.14553  Biso   1.000  Hf
  Hf9      1.0000 0.63714  0.45622  0.39618  Biso   1.000  Hf
  Hf10     1.0000 0.85748  0.53908  0.10295  Biso   1.000  Hf
  Hf11     1.0000 0.85841  0.95715  0.35491  Biso   1.000  Hf
  O17      1.0000 0.53673  0.33631  0.07906  Biso   1.000  O
  O18      1.0000 0.53543  0.16096  0.32996  Biso   1.000  O
  O19      1.0000 0.95423  0.83626  0.17073  Biso   1.000  O
  O20      1.0000 0.96553  0.66621  0.42012  Biso   1.000  O
  O21      1.0000 0.77503  0.25640  0.24072  Biso   1.000  O
  O22      1.0000 0.77487  0.24312  0.49090  Biso   1.000  O
  O23      1.0000 0.72339  0.75795  0.00831  Biso   1.000  O
  O24      1.0000 0.71880  0.74019  0.26060  Biso   1.000  O
  Hf12     1.0000 0.63857  0.04284  0.64610  Biso   1.000  Hf
  Hf13     1.0000 0.63918  0.45753  0.89498  Biso   1.000  Hf
  Hf14     1.0000 0.86102  0.54320  0.60347  Biso   1.000  Hf
  Hf15     1.0000 0.86107  0.95781  0.85349  Biso   1.000  Hf
  O25      1.0000 0.53471  0.33623  0.58009  Biso   1.000  O
  O26      1.0000 0.53675  0.16329  0.82879  Biso   1.000  O
  O27      1.0000 0.96531  0.83723  0.66961  Biso   1.000  O
  O28      1.0000 0.96442  0.66482  0.91873  Biso   1.000  O
  O29      1.0000 0.77711  0.25812  0.73942  Biso   1.000  O
  O30      1.0000 0.77603  0.24037  0.98957  Biso   1.000  O
  O31      1.0000 0.72364  0.75778  0.50930  Biso   1.000  O
  O32      1.0000 0.72499  0.74203  0.75825  Biso   1.000  O
