data_image0
_cell_length_a       4.98858
_cell_length_b       10.3752
_cell_length_c       10.0458
_cell_angle_alpha    90.0774
_cell_angle_beta     90.1662
_cell_angle_gamma    90.021

_symmetry_space_group_name_H-M    "P 1"
_symmetry_int_tables_number       1

loop_
  _symmetry_equiv_pos_as_xyz
  'x, y, z'

loop_
  _atom_site_label
  _atom_site_occupancy
  _atom_site_fract_x
  _atom_site_fract_y
  _atom_site_fract_z
  _atom_site_thermal_displace_type
  _atom_site_B_iso_or_equiv
  _atom_site_type_symbol
  Yb1      1.0000 0.26056  0.01444  0.11978  Biso   1.000  Yb
  Hf1      1.0000 0.26821  0.23294  0.37655  Biso   1.000  Hf
  Hf2      1.0000 0.72539  0.26650  0.12745  Biso   1.000  Hf
  Hf3      1.0000 0.73048  0.48354  0.37686  Biso   1.000  Hf
  Hf4      1.0000 0.06839  0.18933  0.19773  Biso   1.000  Hf
  Hf5      1.0000 0.07001  0.06581  0.44459  Biso   1.000  Hf
  Hf6      1.0000 0.92608  0.43459  0.19497  Biso   1.000  Hf
  Hf7      1.0000 0.92715  0.31689  0.44486  Biso   1.000  Hf
  Hf8      1.0000 0.55075  0.12340  0.25328  Biso   1.000  Hf
  Hf9      1.0000 0.53808  0.13239  0.50128  Biso   1.000  Hf
  Hf10     1.0000 0.45908  0.38284  0.49998  Biso   1.000  Hf
  Hf11     1.0000 0.45448  0.36935  0.25028  Biso   1.000  Hf
  Hf12     1.0000 0.26622  0.01694  0.62601  Biso   1.000  Hf
  Hf13     1.0000 0.26852  0.23479  0.87332  Biso   1.000  Hf
  Hf14     1.0000 0.73238  0.26684  0.62499  Biso   1.000  Hf
  Hf15     1.0000 0.73264  0.48280  0.87628  Biso   1.000  Hf
  Hf16     1.0000 0.07643  0.18703  0.68950  Biso   1.000  Hf
  Hf17     1.0000 0.07279  0.06945  0.92925  Biso   1.000  Hf
  Hf18     1.0000 0.92965  0.43429  0.69583  Biso   1.000  Hf
  Hf19     1.0000 0.92902  0.31658  0.94542  Biso   1.000  Hf
  Hf20     1.0000 0.54303  0.11823  0.74848  Biso   1.000  Hf
  Hf21     1.0000 0.54948  0.13338  0.99582  Biso   1.000  Hf
  Hf22     1.0000 0.45800  0.38180  0.99981  Biso   1.000  Hf
  Hf23     1.0000 0.46127  0.36857  0.74913  Biso   1.000  Hf
  Hf24     1.0000 0.26829  0.51606  0.12622  Biso   1.000  Hf
  Hf25     1.0000 0.26639  0.73371  0.37741  Biso   1.000  Hf
  Hf26     1.0000 0.73015  0.76497  0.12714  Biso   1.000  Hf
  Hf27     1.0000 0.72677  0.98377  0.37678  Biso   1.000  Hf
  Hf28     1.0000 0.07261  0.68301  0.19602  Biso   1.000  Hf
  Hf29     1.0000 0.07066  0.56569  0.44577  Biso   1.000  Hf
  Hf30     1.0000 0.91120  0.93176  0.20018  Biso   1.000  Hf
  Hf31     1.0000 0.92820  0.81582  0.44706  Biso   1.000  Hf
  Hf32     1.0000 0.54102  0.61588  0.24984  Biso   1.000  Hf
  Hf33     1.0000 0.53993  0.63236  0.49991  Biso   1.000  Hf
  Hf34     1.0000 0.45679  0.88241  0.50086  Biso   1.000  Hf
  Hf35     1.0000 0.46199  0.86199  0.25259  Biso   1.000  Hf
  Hf36     1.0000 0.26773  0.51649  0.62616  Biso   1.000  Hf
  Hf37     1.0000 0.27124  0.73241  0.87586  Biso   1.000  Hf
  Hf38     1.0000 0.73202  0.76623  0.62550  Biso   1.000  Hf
  Hf39     1.0000 0.73148  0.98251  0.87372  Biso   1.000  Hf
  Hf40     1.0000 0.07196  0.68395  0.69537  Biso   1.000  Hf
  Hf41     1.0000 0.07170  0.56636  0.94526  Biso   1.000  Hf
  Hf42     1.0000 0.92649  0.93375  0.69360  Biso   1.000  Hf
  Hf43     1.0000 0.94137  0.81908  0.94947  Biso   1.000  Hf
  Hf44     1.0000 0.54232  0.61732  0.74972  Biso   1.000  Hf
  Hf45     1.0000 0.54233  0.62975  0.99982  Biso   1.000  Hf
  Hf46     1.0000 0.47336  0.87569  0.99615  Biso   1.000  Hf
  Hf47     1.0000 0.45852  0.86738  0.74890  Biso   1.000  Hf
