data_image0
_cell_length_a       10.0184
_cell_length_b       10.4074
_cell_length_c       10.0758
_cell_angle_alpha    89.7159
_cell_angle_beta     89.93
_cell_angle_gamma    90.0064

_symmetry_space_group_name_H-M    "P 1"
_symmetry_int_tables_number       1

loop_
  _symmetry_equiv_pos_as_xyz
  'x, y, z'

loop_
  _atom_site_label
  _atom_site_occupancy
  _atom_site_fract_x
  _atom_site_fract_y
  _atom_site_fract_z
  _atom_site_thermal_displace_type
  _atom_site_B_iso_or_equiv
  _atom_site_type_symbol
  Hf1      1.0000 0.13433  0.99513  0.11795  Biso   1.000  Hf
  Hf2      1.0000 0.13041  0.22791  0.39424  Biso   1.000  Hf
  Hf3      1.0000 0.37639  0.27234  0.11791  Biso   1.000  Hf
  Hf4      1.0000 0.36638  0.48365  0.37464  Biso   1.000  Hf
  Hf5      1.0000 0.98258  0.16416  0.25227  Biso   1.000  Hf
  Hf6      1.0000 0.03680  0.06121  0.46322  Biso   1.000  Hf
  Hf7      1.0000 0.46676  0.43739  0.19630  Biso   1.000  Hf
  Hf8      1.0000 0.46724  0.32002  0.44831  Biso   1.000  Hf
  Hf9      1.0000 0.24473  0.11543  0.24466  Biso   1.000  Hf
  Hf10     1.0000 0.27704  0.13090  0.49901  Biso   1.000  Hf
  Hf11     1.0000 0.23321  0.38261  0.50168  Biso   1.000  Hf
  Hf12     1.0000 0.23182  0.36652  0.25407  Biso   1.000  Hf
  Hf13     1.0000 0.13808  0.00804  0.62763  Biso   1.000  Hf
  Hf14     1.0000 0.13296  0.23256  0.85166  Biso   1.000  Hf
  Hf15     1.0000 0.37291  0.26770  0.62395  Biso   1.000  Hf
  Hf16     1.0000 0.36902  0.48782  0.87273  Biso   1.000  Hf
  Hf17     1.0000 0.03432  0.17687  0.68859  Biso   1.000  Hf
  Hf18     1.0000 0.03135  0.06862  0.95160  Biso   1.000  Hf
  Hf19     1.0000 0.46949  0.43417  0.69467  Biso   1.000  Hf
  Hf20     1.0000 0.46828  0.32014  0.93956  Biso   1.000  Hf
  Hf21     1.0000 0.27197  0.11488  0.74495  Biso   1.000  Hf
  Hf22     1.0000 0.26466  0.13842  0.99488  Biso   1.000  Hf
  Hf23     1.0000 0.23659  0.39615  0.99941  Biso   1.000  Hf
  Hf24     1.0000 0.23711  0.36773  0.74684  Biso   1.000  Hf
  Hf25     1.0000 0.13639  0.53144  0.12492  Biso   1.000  Hf
  Hf26     1.0000 0.13432  0.73442  0.37758  Biso   1.000  Hf
  Hf27     1.0000 0.37163  0.76416  0.12314  Biso   1.000  Hf
  Hf28     1.0000 0.36456  0.98736  0.37029  Biso   1.000  Hf
  Hf29     1.0000 0.03281  0.68488  0.20053  Biso   1.000  Hf
  Hf30     1.0000 0.03598  0.56785  0.44533  Biso   1.000  Hf
  Hf31     1.0000 0.45892  0.93450  0.19225  Biso   1.000  Hf
  Hf32     1.0000 0.46763  0.82056  0.44343  Biso   1.000  Hf
  Hf33     1.0000 0.27506  0.61976  0.24836  Biso   1.000  Hf
  Hf34     1.0000 0.27103  0.63313  0.49828  Biso   1.000  Hf
  Hf35     1.0000 0.23395  0.88296  0.49632  Biso   1.000  Hf
  Hf36     1.0000 0.23226  0.86104  0.24673  Biso   1.000  Hf
  Hf37     1.0000 0.13439  0.51557  0.62357  Biso   1.000  Hf
  Hf38     1.0000 0.13214  0.73410  0.86948  Biso   1.000  Hf
  Hf39     1.0000 0.37142  0.76575  0.62157  Biso   1.000  Hf
  Hf40     1.0000 0.36944  0.98488  0.87298  Biso   1.000  Hf
  Hf41     1.0000 0.03612  0.68204  0.69209  Biso   1.000  Hf
  Hf42     1.0000 0.03436  0.57038  0.94647  Biso   1.000  Hf
  Hf43     1.0000 0.46915  0.93289  0.69589  Biso   1.000  Hf
  Hf44     1.0000 0.47124  0.82029  0.94584  Biso   1.000  Hf
  Hf45     1.0000 0.27004  0.61559  0.74622  Biso   1.000  Hf
  Hf46     1.0000 0.26948  0.64025  0.99561  Biso   1.000  Hf
  Hf47     1.0000 0.23615  0.88139  0.99353  Biso   1.000  Hf
  Hf48     1.0000 0.23700  0.86323  0.74693  Biso   1.000  Hf
  Hf49     1.0000 0.62819  0.01182  0.12258  Biso   1.000  Hf
  Hf50     1.0000 0.62960  0.23102  0.37669  Biso   1.000  Hf
  Hf51     1.0000 0.84199  0.26143  0.12734  Biso   1.000  Hf
  Hf52     1.0000 0.86906  0.48165  0.37308  Biso   1.000  Hf
  Hf53     1.0000 0.52497  0.17663  0.20503  Biso   1.000  Hf
  Hf54     1.0000 0.53236  0.06652  0.44943  Biso   1.000  Hf
  Hf55     1.0000 0.96968  0.42471  0.19069  Biso   1.000  Hf
  Hf56     1.0000 0.96966  0.32467  0.45856  Biso   1.000  Hf
  Hf57     1.0000 0.74834  0.11012  0.24908  Biso   1.000  Hf
  Hf58     1.0000 0.77120  0.13765  0.49644  Biso   1.000  Hf
  Hf59     1.0000 0.73357  0.38527  0.50055  Biso   1.000  Hf
  Hf60     1.0000 0.72402  0.37084  0.25431  Biso   1.000  Hf
  Hf61     1.0000 0.63720  0.01466  0.62226  Biso   1.000  Hf
  Hf62     1.0000 0.63483  0.23300  0.87225  Biso   1.000  Hf
  Hf63     1.0000 0.86369  0.26794  0.62603  Biso   1.000  Hf
  Hf64     1.0000 0.86825  0.48109  0.87805  Biso   1.000  Hf
  Hf65     1.0000 0.53901  0.18287  0.69473  Biso   1.000  Hf
  Hf66     1.0000 0.53139  0.07133  0.94670  Biso   1.000  Hf
  Hf67     1.0000 0.97182  0.42888  0.70418  Biso   1.000  Hf
  Hf68     1.0000 0.96518  0.31211  0.94563  Biso   1.000  Hf
  Hf69     1.0000 0.77272  0.11559  0.74715  Biso   1.000  Hf
  Hf70     1.0000 0.76684  0.12816  0.99633  Biso   1.000  Hf
  Hf71     1.0000 0.72499  0.38392  0.99849  Biso   1.000  Hf
  Hf72     1.0000 0.73232  0.36781  0.74994  Biso   1.000  Hf
  Hf73     1.0000 0.63447  0.51910  0.12639  Biso   1.000  Hf
  Hf74     1.0000 0.63692  0.73639  0.37615  Biso   1.000  Hf
  Hf75     1.0000 0.86318  0.76448  0.12589  Biso   1.000  Hf
  Hf76     1.0000 0.87558  0.99586  0.36554  Biso   1.000  Hf
  Hf77     1.0000 0.53966  0.68642  0.19572  Biso   1.000  Hf
  Hf78     1.0000 0.53551  0.56960  0.44562  Biso   1.000  Hf
  Hf79     1.0000 0.96391  0.92846  0.19333  Biso   1.000  Hf
  Hf80     1.0000 0.96829  0.82117  0.44515  Biso   1.000  Hf
  Hf81     1.0000 0.77239  0.61613  0.24863  Biso   1.000  Hf
  Hf82     1.0000 0.77232  0.63459  0.49766  Biso   1.000  Hf
  Hf83     1.0000 0.73568  0.88764  0.49591  Biso   1.000  Hf
  Hf84     1.0000 0.72992  0.86578  0.24675  Biso   1.000  Hf
  Hf85     1.0000 0.63690  0.51767  0.62360  Biso   1.000  Hf
  Hf86     1.0000 0.63700  0.73334  0.87361  Biso   1.000  Hf
  Hf87     1.0000 0.86822  0.76855  0.62139  Biso   1.000  Hf
  Hf88     1.0000 0.86705  0.98268  0.87628  Biso   1.000  Hf
  Hf89     1.0000 0.53761  0.68352  0.69552  Biso   1.000  Hf
  Hf90     1.0000 0.53407  0.57115  0.94833  Biso   1.000  Hf
  Hf91     1.0000 0.97241  0.92716  0.70479  Biso   1.000  Hf
  Hf92     1.0000 0.97033  0.81856  0.95160  Biso   1.000  Hf
  Hf93     1.0000 0.77311  0.61551  0.74857  Biso   1.000  Hf
  Hf94     1.0000 0.77103  0.63218  0.99829  Biso   1.000  Hf
  Hf95     1.0000 0.73139  0.88081  0.99756  Biso   1.000  Hf
  Hf96     1.0000 0.73333  0.86613  0.74687  Biso   1.000  Hf
  Yb1      1.0000 0.10556  0.26085  0.11475  Biso   1.000  Yb
