data_image0
_cell_length_a       10.0182
_cell_length_b       10.1874
_cell_length_c       10.0182
_cell_angle_alpha    90.0001
_cell_angle_beta     90
_cell_angle_gamma    89.9999

_symmetry_space_group_name_H-M    "P 1"
_symmetry_int_tables_number       1

loop_
  _symmetry_equiv_pos_as_xyz
  'x, y, z'

loop_
  _atom_site_label
  _atom_site_occupancy
  _atom_site_fract_x
  _atom_site_fract_y
  _atom_site_fract_z
  _atom_site_thermal_displace_type
  _atom_site_B_iso_or_equiv
  _atom_site_type_symbol
  Yb1      1.0000 0.12491  0.00005  0.12491  Biso   1.000  Yb
  Hf1      1.0000 0.12392  0.25066  0.37464  Biso   1.000  Hf
  Hf2      1.0000 0.37464  0.25066  0.12391  Biso   1.000  Hf
  Hf3      1.0000 0.37475  0.00009  0.37475  Biso   1.000  Hf
  Hf4      1.0000 0.99875  0.14547  0.99875  Biso   1.000  Hf
  Hf5      1.0000 0.99391  0.11345  0.25591  Biso   1.000  Hf
  Hf6      1.0000 0.00278  0.35753  0.24704  Biso   1.000  Hf
  Hf7      1.0000 0.99848  0.39439  0.99849  Biso   1.000  Hf
  Hf8      1.0000 0.25107  0.14547  0.25107  Biso   1.000  Hf
  Hf9      1.0000 0.25591  0.11345  0.99391  Biso   1.000  Hf
  Hf10     1.0000 0.24704  0.35753  0.00279  Biso   1.000  Hf
  Hf11     1.0000 0.25134  0.39440  0.25133  Biso   1.000  Hf
  Hf12     1.0000 0.12491  0.00005  0.62491  Biso   1.000  Hf
  Hf13     1.0000 0.12591  0.25066  0.87519  Biso   1.000  Hf
  Hf14     1.0000 0.37496  0.24998  0.62479  Biso   1.000  Hf
  Hf15     1.0000 0.37475  0.00002  0.87507  Biso   1.000  Hf
  Hf16     1.0000 0.00286  0.14734  0.50400  Biso   1.000  Hf
  Hf17     1.0000 0.99877  0.10284  0.75113  Biso   1.000  Hf
  Hf18     1.0000 0.00112  0.35305  0.74762  Biso   1.000  Hf
  Hf19     1.0000 0.99973  0.39727  0.49784  Biso   1.000  Hf
  Hf20     1.0000 0.24696  0.14734  0.74582  Biso   1.000  Hf
  Hf21     1.0000 0.25105  0.10284  0.49869  Biso   1.000  Hf
  Hf22     1.0000 0.24870  0.35305  0.50220  Biso   1.000  Hf
  Hf23     1.0000 0.25008  0.39727  0.75197  Biso   1.000  Hf
  Hf24     1.0000 0.12491  0.50005  0.12491  Biso   1.000  Hf
  Hf25     1.0000 0.12590  0.74945  0.37463  Biso   1.000  Hf
  Hf26     1.0000 0.37463  0.74945  0.12590  Biso   1.000  Hf
  Hf27     1.0000 0.37485  0.49908  0.37484  Biso   1.000  Hf
  Hf28     1.0000 0.00278  0.64258  0.00278  Biso   1.000  Hf
  Hf29     1.0000 0.99848  0.60571  0.25133  Biso   1.000  Hf
  Hf30     1.0000 0.99875  0.85463  0.25107  Biso   1.000  Hf
  Hf31     1.0000 0.99391  0.88666  0.99391  Biso   1.000  Hf
  Hf32     1.0000 0.24704  0.64257  0.24703  Biso   1.000  Hf
  Hf33     1.0000 0.25133  0.60572  0.99848  Biso   1.000  Hf
  Hf34     1.0000 0.25107  0.85463  0.99875  Biso   1.000  Hf
  Hf35     1.0000 0.25591  0.88666  0.25591  Biso   1.000  Hf
  Hf36     1.0000 0.12490  0.50005  0.62490  Biso   1.000  Hf
  Hf37     1.0000 0.12391  0.74945  0.87518  Biso   1.000  Hf
  Hf38     1.0000 0.37495  0.75013  0.62503  Biso   1.000  Hf
  Hf39     1.0000 0.37483  0.50103  0.87497  Biso   1.000  Hf
  Hf40     1.0000 0.00112  0.64705  0.50219  Biso   1.000  Hf
  Hf41     1.0000 0.99974  0.60284  0.75197  Biso   1.000  Hf
  Hf42     1.0000 0.00285  0.85277  0.74582  Biso   1.000  Hf
  Hf43     1.0000 0.99877  0.89727  0.49869  Biso   1.000  Hf
  Hf44     1.0000 0.24869  0.64706  0.74762  Biso   1.000  Hf
  Hf45     1.0000 0.25008  0.60284  0.49784  Biso   1.000  Hf
  Hf46     1.0000 0.24696  0.85277  0.50400  Biso   1.000  Hf
  Hf47     1.0000 0.25104  0.89727  0.75113  Biso   1.000  Hf
  Hf48     1.0000 0.62491  0.00005  0.12491  Biso   1.000  Hf
  Hf49     1.0000 0.62479  0.24998  0.37496  Biso   1.000  Hf
  Hf50     1.0000 0.87519  0.25065  0.12591  Biso   1.000  Hf
  Hf51     1.0000 0.87507  0.00002  0.37475  Biso   1.000  Hf
  Hf52     1.0000 0.50400  0.14734  0.00286  Biso   1.000  Hf
  Hf53     1.0000 0.49869  0.10284  0.25105  Biso   1.000  Hf
  Hf54     1.0000 0.50220  0.35305  0.24870  Biso   1.000  Hf
  Hf55     1.0000 0.49784  0.39727  0.99973  Biso   1.000  Hf
  Hf56     1.0000 0.74582  0.14734  0.24696  Biso   1.000  Hf
  Hf57     1.0000 0.75113  0.10284  0.99877  Biso   1.000  Hf
  Hf58     1.0000 0.74763  0.35305  0.00113  Biso   1.000  Hf
  Hf59     1.0000 0.75197  0.39727  0.25007  Biso   1.000  Hf
  Hf60     1.0000 0.62491  0.00005  0.62491  Biso   1.000  Hf
  Hf61     1.0000 0.62503  0.24999  0.87486  Biso   1.000  Hf
  Hf62     1.0000 0.87486  0.24998  0.62503  Biso   1.000  Hf
  Hf63     1.0000 0.87507  0.00009  0.87507  Biso   1.000  Hf
  Hf64     1.0000 0.50179  0.14749  0.50179  Biso   1.000  Hf
  Hf65     1.0000 0.49891  0.10277  0.75091  Biso   1.000  Hf
  Hf66     1.0000 0.50070  0.35274  0.74912  Biso   1.000  Hf
  Hf67     1.0000 0.49944  0.39733  0.49945  Biso   1.000  Hf
  Hf68     1.0000 0.74803  0.14749  0.74803  Biso   1.000  Hf
  Hf69     1.0000 0.75091  0.10277  0.49891  Biso   1.000  Hf
  Hf70     1.0000 0.74912  0.35274  0.50071  Biso   1.000  Hf
  Hf71     1.0000 0.75038  0.39734  0.75037  Biso   1.000  Hf
  Hf72     1.0000 0.62490  0.50005  0.12490  Biso   1.000  Hf
  Hf73     1.0000 0.62503  0.75012  0.37496  Biso   1.000  Hf
  Hf74     1.0000 0.87518  0.74945  0.12391  Biso   1.000  Hf
  Hf75     1.0000 0.87497  0.50103  0.37483  Biso   1.000  Hf
  Hf76     1.0000 0.50219  0.64705  0.00112  Biso   1.000  Hf
  Hf77     1.0000 0.49784  0.60284  0.25007  Biso   1.000  Hf
  Hf78     1.0000 0.50400  0.85277  0.24696  Biso   1.000  Hf
  Hf79     1.0000 0.49869  0.89727  0.99877  Biso   1.000  Hf
  Hf80     1.0000 0.74762  0.64705  0.24869  Biso   1.000  Hf
  Hf81     1.0000 0.75197  0.60284  0.99974  Biso   1.000  Hf
  Hf82     1.0000 0.74581  0.85277  0.00285  Biso   1.000  Hf
  Hf83     1.0000 0.75113  0.89727  0.25105  Biso   1.000  Hf
  Hf84     1.0000 0.62491  0.50005  0.62491  Biso   1.000  Hf
  Hf85     1.0000 0.62479  0.75012  0.87486  Biso   1.000  Hf
  Hf86     1.0000 0.87486  0.75013  0.62479  Biso   1.000  Hf
  Hf87     1.0000 0.87499  0.49908  0.87498  Biso   1.000  Hf
  Hf88     1.0000 0.50070  0.64737  0.50070  Biso   1.000  Hf
  Hf89     1.0000 0.49944  0.60278  0.75037  Biso   1.000  Hf
  Hf90     1.0000 0.50179  0.85262  0.74803  Biso   1.000  Hf
  Hf91     1.0000 0.49891  0.89734  0.49891  Biso   1.000  Hf
  Hf92     1.0000 0.74912  0.64736  0.74911  Biso   1.000  Hf
  Hf93     1.0000 0.75037  0.60277  0.49944  Biso   1.000  Hf
  Hf94     1.0000 0.74803  0.85262  0.50179  Biso   1.000  Hf
  Hf95     1.0000 0.75091  0.89734  0.75091  Biso   1.000  Hf
