data_image0
_cell_length_a       5.10134
_cell_length_b       10.3314
_cell_length_c       10.057
_cell_angle_alpha    90.4841
_cell_angle_beta     89.4779
_cell_angle_gamma    90.5411

_symmetry_space_group_name_H-M    "P 1"
_symmetry_int_tables_number       1

loop_
  _symmetry_equiv_pos_as_xyz
  'x, y, z'

loop_
  _atom_site_label
  _atom_site_occupancy
  _atom_site_fract_x
  _atom_site_fract_y
  _atom_site_fract_z
  _atom_site_thermal_displace_type
  _atom_site_B_iso_or_equiv
  _atom_site_type_symbol
  Hf1      1.0000 0.30453  0.96482  0.14809  Biso   1.000  Hf
  Hf2      1.0000 0.22793  0.23897  0.38296  Biso   1.000  Hf
  Hf3      1.0000 0.60022  0.25325  0.11694  Biso   1.000  Hf
  Hf4      1.0000 0.74919  0.00633  0.39898  Biso   1.000  Hf
  Hf5      1.0000 0.88808  0.16381  0.99566  Biso   1.000  Hf
  Hf6      1.0000 0.05040  0.06431  0.27426  Biso   1.000  Hf
  Hf7      1.0000 0.88304  0.30914  0.26634  Biso   1.000  Hf
  Hf8      1.0000 0.99193  0.41079  0.98917  Biso   1.000  Hf
  Hf9      1.0000 0.53130  0.11609  0.25837  Biso   1.000  Hf
  Hf10     1.0000 0.43292  0.09452  0.99148  Biso   1.000  Hf
  Hf11     1.0000 0.48106  0.37071  0.96653  Biso   1.000  Hf
  Hf12     1.0000 0.43159  0.39704  0.24523  Biso   1.000  Hf
  Hf13     1.0000 0.22420  0.01957  0.64257  Biso   1.000  Hf
  Hf14     1.0000 0.18821  0.25244  0.88350  Biso   1.000  Hf
  Hf15     1.0000 0.72620  0.26577  0.63169  Biso   1.000  Hf
  Hf16     1.0000 0.74970  0.99683  0.89582  Biso   1.000  Hf
  Hf17     1.0000 0.97017  0.14773  0.51212  Biso   1.000  Hf
  Hf18     1.0000 0.94935  0.11397  0.75856  Biso   1.000  Hf
  Hf19     1.0000 0.02244  0.36490  0.73914  Biso   1.000  Hf
  Hf20     1.0000 0.00283  0.39365  0.48713  Biso   1.000  Hf
  Hf21     1.0000 0.43544  0.18377  0.73817  Biso   1.000  Hf
  Hf22     1.0000 0.46747  0.10659  0.50253  Biso   1.000  Hf
  Hf23     1.0000 0.49383  0.35123  0.48804  Biso   1.000  Hf
  Hf24     1.0000 0.55665  0.43442  0.71766  Biso   1.000  Hf
  Hf25     1.0000 0.26406  0.51292  0.09768  Biso   1.000  Hf
  Hf26     1.0000 0.31875  0.75081  0.39126  Biso   1.000  Hf
  Hf27     1.0000 0.78635  0.73527  0.13168  Biso   1.000  Hf
  Hf28     1.0000 0.73316  0.48328  0.35678  Biso   1.000  Hf
  Hf29     1.0000 0.05144  0.65836  0.99048  Biso   1.000  Hf
  Hf30     1.0000 0.96640  0.56797  0.22171  Biso   1.000  Hf
  Hf31     1.0000 0.10045  0.81176  0.23730  Biso   1.000  Hf
  Hf32     1.0000 0.02038  0.90736  0.00935  Biso   1.000  Hf
  Hf33     1.0000 0.50203  0.63574  0.25220  Biso   1.000  Hf
  Hf34     1.0000 0.56007  0.60680  0.00538  Biso   1.000  Hf
  Hf35     1.0000 0.52834  0.84826  0.01045  Biso   1.000  Hf
  Hf36     1.0000 0.58954  0.87588  0.26286  Biso   1.000  Hf
  Hf37     1.0000 0.25231  0.49601  0.60473  Biso   1.000  Hf
  Hf38     1.0000 0.27207  0.77126  0.86408  Biso   1.000  Hf
  Hf39     1.0000 0.80938  0.74526  0.61338  Biso   1.000  Hf
  Hf40     1.0000 0.77585  0.51907  0.86030  Biso   1.000  Hf
  Hf41     1.0000 0.04342  0.64013  0.48601  Biso   1.000  Hf
  Hf42     1.0000 0.05891  0.61678  0.73842  Biso   1.000  Hf
  Hf43     1.0000 0.98396  0.86605  0.75409  Biso   1.000  Hf
  Hf44     1.0000 0.04300  0.89378  0.50011  Biso   1.000  Hf
  Hf45     1.0000 0.57005  0.68344  0.76438  Biso   1.000  Hf
  Hf46     1.0000 0.54127  0.60624  0.50341  Biso   1.000  Hf
  Hf47     1.0000 0.54771  0.85958  0.51613  Biso   1.000  Hf
  Hf48     1.0000 0.45880  0.93222  0.77228  Biso   1.000  Hf
  Zn1      1.0000 0.10169  0.21398  0.14121  Biso   1.000  Zn
