data_image0
_cell_length_a       9.96415
_cell_length_b       10.3438
_cell_length_c       5.00068
_cell_angle_alpha    90.2792
_cell_angle_beta     89.4757
_cell_angle_gamma    90.0229

_symmetry_space_group_name_H-M    "P 1"
_symmetry_int_tables_number       1

loop_
  _symmetry_equiv_pos_as_xyz
  'x, y, z'

loop_
  _atom_site_label
  _atom_site_occupancy
  _atom_site_fract_x
  _atom_site_fract_y
  _atom_site_fract_z
  _atom_site_thermal_displace_type
  _atom_site_B_iso_or_equiv
  _atom_site_type_symbol
  Zn1      1.0000 0.11713  0.02085  0.21540  Biso   1.000  Zn
  Hf1      1.0000 0.13569  0.51620  0.25429  Biso   1.000  Hf
  Hf2      1.0000 0.63261  0.01567  0.24608  Biso   1.000  Hf
  Hf3      1.0000 0.63404  0.51670  0.25413  Biso   1.000  Hf
  Hf4      1.0000 0.13543  0.23029  0.74919  Biso   1.000  Hf
  Hf5      1.0000 0.13549  0.73450  0.75972  Biso   1.000  Hf
  Hf6      1.0000 0.63323  0.23262  0.74918  Biso   1.000  Hf
  Hf7      1.0000 0.63340  0.73468  0.75293  Biso   1.000  Hf
  Hf8      1.0000 0.36443  0.26566  0.25761  Biso   1.000  Hf
  Hf9      1.0000 0.36384  0.76836  0.26216  Biso   1.000  Hf
  Hf10     1.0000 0.86514  0.26450  0.24681  Biso   1.000  Hf
  Hf11     1.0000 0.86915  0.76704  0.24572  Biso   1.000  Hf
  Hf12     1.0000 0.36527  0.48337  0.75506  Biso   1.000  Hf
  Hf13     1.0000 0.35963  0.98295  0.76028  Biso   1.000  Hf
  Hf14     1.0000 0.86536  0.48381  0.75185  Biso   1.000  Hf
  Hf15     1.0000 0.86651  0.98366  0.74112  Biso   1.000  Hf
  Hf16     1.0000 0.03833  0.18452  0.38127  Biso   1.000  Hf
  Hf17     1.0000 0.03629  0.68385  0.39241  Biso   1.000  Hf
  Hf18     1.0000 0.53956  0.18653  0.38158  Biso   1.000  Hf
  Hf19     1.0000 0.53528  0.68348  0.39536  Biso   1.000  Hf
  Hf20     1.0000 0.03367  0.06758  0.85865  Biso   1.000  Hf
  Hf21     1.0000 0.03500  0.56468  0.89410  Biso   1.000  Hf
  Hf22     1.0000 0.53498  0.06581  0.88731  Biso   1.000  Hf
  Hf23     1.0000 0.53611  0.56565  0.89167  Biso   1.000  Hf
  Hf24     1.0000 0.46406  0.43380  0.39216  Biso   1.000  Hf
  Hf25     1.0000 0.46707  0.93380  0.39883  Biso   1.000  Hf
  Hf26     1.0000 0.96474  0.43150  0.38881  Biso   1.000  Hf
  Hf27     1.0000 0.96395  0.93579  0.37673  Biso   1.000  Hf
  Hf28     1.0000 0.46301  0.31490  0.88847  Biso   1.000  Hf
  Hf29     1.0000 0.46422  0.81724  0.90095  Biso   1.000  Hf
  Hf30     1.0000 0.96354  0.31635  0.88496  Biso   1.000  Hf
  Hf31     1.0000 0.96170  0.81485  0.88058  Biso   1.000  Hf
  Hf32     1.0000 0.28416  0.12805  0.52172  Biso   1.000  Hf
  Hf33     1.0000 0.26987  0.61548  0.50385  Biso   1.000  Hf
  Hf34     1.0000 0.76982  0.11679  0.49239  Biso   1.000  Hf
  Hf35     1.0000 0.77128  0.61676  0.49812  Biso   1.000  Hf
  Hf36     1.0000 0.26724  0.12878  0.01456  Biso   1.000  Hf
  Hf37     1.0000 0.27135  0.63210  0.00452  Biso   1.000  Hf
  Hf38     1.0000 0.77070  0.13261  0.99208  Biso   1.000  Hf
  Hf39     1.0000 0.76935  0.63272  0.99869  Biso   1.000  Hf
  Hf40     1.0000 0.22974  0.38075  0.00112  Biso   1.000  Hf
  Hf41     1.0000 0.22457  0.88200  0.02314  Biso   1.000  Hf
  Hf42     1.0000 0.72902  0.38221  0.99910  Biso   1.000  Hf
  Hf43     1.0000 0.72910  0.88233  0.99334  Biso   1.000  Hf
  Hf44     1.0000 0.22710  0.37030  0.50062  Biso   1.000  Hf
  Hf45     1.0000 0.23831  0.86139  0.52677  Biso   1.000  Hf
  Hf46     1.0000 0.72984  0.36745  0.49870  Biso   1.000  Hf
  Hf47     1.0000 0.73104  0.86584  0.49195  Biso   1.000  Hf
