data_image0
_cell_length_a       10.0305
_cell_length_b       10.3925
_cell_length_c       5.05492
_cell_angle_alpha    89.8043
_cell_angle_beta     89.2304
_cell_angle_gamma    90.0165

_symmetry_space_group_name_H-M    "P 1"
_symmetry_int_tables_number       1

loop_
  _symmetry_equiv_pos_as_xyz
  'x, y, z'

loop_
  _atom_site_label
  _atom_site_occupancy
  _atom_site_fract_x
  _atom_site_fract_y
  _atom_site_fract_z
  _atom_site_thermal_displace_type
  _atom_site_B_iso_or_equiv
  _atom_site_type_symbol
  Hf1      1.0000 0.13969  0.01839  0.26190  Biso   1.000  Hf
  Hf2      1.0000 0.13630  0.22528  0.80868  Biso   1.000  Hf
  Hf3      1.0000 0.36619  0.26678  0.24915  Biso   1.000  Hf
  Hf4      1.0000 0.37238  0.48771  0.74454  Biso   1.000  Hf
  Hf5      1.0000 0.99494  0.15610  0.50493  Biso   1.000  Hf
  Hf6      1.0000 0.03684  0.05945  0.93094  Biso   1.000  Hf
  Hf7      1.0000 0.46602  0.43296  0.38835  Biso   1.000  Hf
  Hf8      1.0000 0.46430  0.31667  0.88295  Biso   1.000  Hf
  Hf9      1.0000 0.26663  0.12053  0.51839  Biso   1.000  Hf
  Hf10     1.0000 0.29189  0.11987  0.00434  Biso   1.000  Hf
  Hf11     1.0000 0.24092  0.39361  0.99854  Biso   1.000  Hf
  Hf12     1.0000 0.22676  0.37031  0.51160  Biso   1.000  Hf
  Hf13     1.0000 0.13848  0.53073  0.24372  Biso   1.000  Hf
  Hf14     1.0000 0.13394  0.73768  0.74850  Biso   1.000  Hf
  Hf15     1.0000 0.37000  0.76740  0.24712  Biso   1.000  Hf
  Hf16     1.0000 0.36839  0.98031  0.75032  Biso   1.000  Hf
  Hf17     1.0000 0.03505  0.68292  0.38928  Biso   1.000  Hf
  Hf18     1.0000 0.03572  0.56976  0.88880  Biso   1.000  Hf
  Hf19     1.0000 0.46533  0.93300  0.38390  Biso   1.000  Hf
  Hf20     1.0000 0.47114  0.81700  0.89212  Biso   1.000  Hf
  Hf21     1.0000 0.27352  0.62047  0.49311  Biso   1.000  Hf
  Hf22     1.0000 0.27092  0.63801  0.99177  Biso   1.000  Hf
  Hf23     1.0000 0.23098  0.88109  0.00321  Biso   1.000  Hf
  Hf24     1.0000 0.23490  0.86716  0.50132  Biso   1.000  Hf
  Hf25     1.0000 0.63158  0.01091  0.22991  Biso   1.000  Hf
  Hf26     1.0000 0.62747  0.23046  0.73539  Biso   1.000  Hf
  Hf27     1.0000 0.84645  0.26216  0.23762  Biso   1.000  Hf
  Hf28     1.0000 0.86887  0.48175  0.74790  Biso   1.000  Hf
  Hf29     1.0000 0.53293  0.18276  0.37575  Biso   1.000  Hf
  Hf30     1.0000 0.53973  0.06307  0.87269  Biso   1.000  Hf
  Hf31     1.0000 0.97127  0.42405  0.38107  Biso   1.000  Hf
  Hf32     1.0000 0.96048  0.32107  0.89367  Biso   1.000  Hf
  Hf33     1.0000 0.75654  0.11145  0.47563  Biso   1.000  Hf
  Hf34     1.0000 0.76879  0.13521  0.97470  Biso   1.000  Hf
  Hf35     1.0000 0.72588  0.38244  0.99435  Biso   1.000  Hf
  Hf36     1.0000 0.72934  0.36790  0.49442  Biso   1.000  Hf
  Hf37     1.0000 0.63438  0.51892  0.24764  Biso   1.000  Hf
  Hf38     1.0000 0.64064  0.73568  0.74384  Biso   1.000  Hf
  Hf39     1.0000 0.86743  0.76792  0.23652  Biso   1.000  Hf
  Hf40     1.0000 0.87814  0.99292  0.72135  Biso   1.000  Hf
  Hf41     1.0000 0.53726  0.68354  0.39252  Biso   1.000  Hf
  Hf42     1.0000 0.53688  0.56909  0.89277  Biso   1.000  Hf
  Hf43     1.0000 0.97225  0.92369  0.38596  Biso   1.000  Hf
  Hf44     1.0000 0.96554  0.81895  0.87887  Biso   1.000  Hf
  Hf45     1.0000 0.77338  0.61495  0.48976  Biso   1.000  Hf
  Hf46     1.0000 0.77159  0.63176  0.99031  Biso   1.000  Hf
  Hf47     1.0000 0.73589  0.88465  0.98266  Biso   1.000  Hf
  Hf48     1.0000 0.73302  0.86565  0.48308  Biso   1.000  Hf
  Zn1      1.0000 0.09830  0.27704  0.29760  Biso   1.000  Zn
