data_image0
_cell_length_a       10.016
_cell_length_b       10.2031
_cell_length_c       5.03124
_cell_angle_alpha    90.7533
_cell_angle_beta     90.5457
_cell_angle_gamma    92.0838

_symmetry_space_group_name_H-M    "P 1"
_symmetry_int_tables_number       1

loop_
  _symmetry_equiv_pos_as_xyz
  'x, y, z'

loop_
  _atom_site_label
  _atom_site_occupancy
  _atom_site_fract_x
  _atom_site_fract_y
  _atom_site_fract_z
  _atom_site_thermal_displace_type
  _atom_site_B_iso_or_equiv
  _atom_site_type_symbol
  Zn1      1.0000 0.12411  0.02633  0.27271  Biso   1.000  Zn
  Hf1      1.0000 0.14292  0.48690  0.26460  Biso   1.000  Hf
  Hf2      1.0000 0.62504  0.98300  0.27053  Biso   1.000  Hf
  Hf3      1.0000 0.63468  0.49401  0.27925  Biso   1.000  Hf
  Hf4      1.0000 0.12433  0.25561  0.75370  Biso   1.000  Hf
  Hf5      1.0000 0.13453  0.74136  0.71227  Biso   1.000  Hf
  Hf6      1.0000 0.63652  0.25965  0.77700  Biso   1.000  Hf
  Hf7      1.0000 0.62040  0.74434  0.76283  Biso   1.000  Hf
  Hf8      1.0000 0.38158  0.23825  0.23778  Biso   1.000  Hf
  Hf9      1.0000 0.36052  0.76448  0.21824  Biso   1.000  Hf
  Hf10     1.0000 0.86210  0.23811  0.28008  Biso   1.000  Hf
  Hf11     1.0000 0.87815  0.76047  0.27319  Biso   1.000  Hf
  Hf12     1.0000 0.36149  0.99885  0.73256  Biso   1.000  Hf
  Hf13     1.0000 0.37656  0.50387  0.78364  Biso   1.000  Hf
  Hf14     1.0000 0.87295  0.00022  0.78439  Biso   1.000  Hf
  Hf15     1.0000 0.87527  0.52133  0.77796  Biso   1.000  Hf
  Hf16     1.0000 0.97046  0.17457  0.95841  Biso   1.000  Hf
  Hf17     1.0000 0.99019  0.67808  0.97988  Biso   1.000  Hf
  Hf18     1.0000 0.47457  0.15585  0.91174  Biso   1.000  Hf
  Hf19     1.0000 0.49614  0.64614  0.04145  Biso   1.000  Hf
  Hf20     1.0000 0.98479  0.09581  0.49178  Biso   1.000  Hf
  Hf21     1.0000 0.00899  0.59910  0.47519  Biso   1.000  Hf
  Hf22     1.0000 0.46826  0.07562  0.41067  Biso   1.000  Hf
  Hf23     1.0000 0.52445  0.57916  0.55967  Biso   1.000  Hf
  Hf24     1.0000 0.02667  0.33616  0.42698  Biso   1.000  Hf
  Hf25     1.0000 0.97846  0.84725  0.59274  Biso   1.000  Hf
  Hf26     1.0000 0.53044  0.32573  0.45876  Biso   1.000  Hf
  Hf27     1.0000 0.49320  0.83515  0.49984  Biso   1.000  Hf
  Hf28     1.0000 0.03195  0.42672  0.92758  Biso   1.000  Hf
  Hf29     1.0000 0.98945  0.92748  0.09147  Biso   1.000  Hf
  Hf30     1.0000 0.51512  0.39891  0.98803  Biso   1.000  Hf
  Hf31     1.0000 0.49916  0.89820  0.98490  Biso   1.000  Hf
  Hf32     1.0000 0.23988  0.14395  0.48847  Biso   1.000  Hf
  Hf33     1.0000 0.26803  0.63476  0.48914  Biso   1.000  Hf
  Hf34     1.0000 0.73685  0.13556  0.52877  Biso   1.000  Hf
  Hf35     1.0000 0.76010  0.64623  0.52443  Biso   1.000  Hf
  Hf36     1.0000 0.22942  0.10506  0.97878  Biso   1.000  Hf
  Hf37     1.0000 0.24130  0.61032  0.98978  Biso   1.000  Hf
  Hf38     1.0000 0.73060  0.10872  0.02761  Biso   1.000  Hf
  Hf39     1.0000 0.74678  0.60971  0.02426  Biso   1.000  Hf
  Hf40     1.0000 0.26067  0.35583  0.00854  Biso   1.000  Hf
  Hf41     1.0000 0.25507  0.85539  0.94122  Biso   1.000  Hf
  Hf42     1.0000 0.76848  0.36440  0.02285  Biso   1.000  Hf
  Hf43     1.0000 0.74982  0.85542  0.02070  Biso   1.000  Hf
  Hf44     1.0000 0.27357  0.38805  0.50726  Biso   1.000  Hf
  Hf45     1.0000 0.23332  0.88677  0.45349  Biso   1.000  Hf
  Hf46     1.0000 0.77072  0.39211  0.52246  Biso   1.000  Hf
  Hf47     1.0000 0.74065  0.88991  0.52742  Biso   1.000  Hf
