data_image0
_cell_length_a       10.1418
_cell_length_b       10.238
_cell_length_c       5.22161
_cell_angle_alpha    90.3541
_cell_angle_beta     80.3255
_cell_angle_gamma    89.7387

_symmetry_space_group_name_H-M    "P 1"
_symmetry_int_tables_number       1

loop_
  _symmetry_equiv_pos_as_xyz
  'x, y, z'

loop_
  _atom_site_label
  _atom_site_occupancy
  _atom_site_fract_x
  _atom_site_fract_y
  _atom_site_fract_z
  _atom_site_thermal_displace_type
  _atom_site_B_iso_or_equiv
  _atom_site_type_symbol
  Zn1      1.0000 0.12633  0.00925  0.31332  Biso   1.000  Zn
  Hf1      1.0000 0.14067  0.52236  0.29214  Biso   1.000  Hf
  Hf2      1.0000 0.63858  0.02265  0.29257  Biso   1.000  Hf
  Hf3      1.0000 0.63795  0.52011  0.29178  Biso   1.000  Hf
  Hf4      1.0000 0.14217  0.22641  0.78359  Biso   1.000  Hf
  Hf5      1.0000 0.13999  0.73130  0.79552  Biso   1.000  Hf
  Hf6      1.0000 0.63987  0.23012  0.79162  Biso   1.000  Hf
  Hf7      1.0000 0.63652  0.72898  0.79452  Biso   1.000  Hf
  Hf8      1.0000 0.35740  0.26774  0.20388  Biso   1.000  Hf
  Hf9      1.0000 0.35790  0.77571  0.21298  Biso   1.000  Hf
  Hf10     1.0000 0.86524  0.26824  0.20599  Biso   1.000  Hf
  Hf11     1.0000 0.85968  0.76999  0.21016  Biso   1.000  Hf
  Hf12     1.0000 0.36040  0.47926  0.70709  Biso   1.000  Hf
  Hf13     1.0000 0.35782  0.98163  0.70645  Biso   1.000  Hf
  Hf14     1.0000 0.86233  0.47827  0.70917  Biso   1.000  Hf
  Hf15     1.0000 0.85848  0.97718  0.71090  Biso   1.000  Hf
  O1       1.0000 0.03830  0.15980  0.14145  Biso   1.000  O
  O2       1.0000 0.03404  0.66724  0.16184  Biso   1.000  O
  O3       1.0000 0.53483  0.16806  0.15665  Biso   1.000  O
  O4       1.0000 0.53333  0.66727  0.15879  Biso   1.000  O
  O5       1.0000 0.03260  0.08042  0.66524  Biso   1.000  O
  O6       1.0000 0.03505  0.58385  0.65973  Biso   1.000  O
  O7       1.0000 0.53611  0.08417  0.65590  Biso   1.000  O
  O8       1.0000 0.53368  0.58347  0.65717  Biso   1.000  O
  O9       1.0000 0.46582  0.41536  0.34246  Biso   1.000  O
  O10      1.0000 0.46761  0.91733  0.34323  Biso   1.000  O
  O11      1.0000 0.96903  0.41393  0.34420  Biso   1.000  O
  O12      1.0000 0.95877  0.91629  0.34860  Biso   1.000  O
  O13      1.0000 0.46930  0.33822  0.84454  Biso   1.000  O
  O14      1.0000 0.46348  0.83459  0.84418  Biso   1.000  O
  O15      1.0000 0.96712  0.33353  0.84313  Biso   1.000  O
  O16      1.0000 0.96388  0.83201  0.84610  Biso   1.000  O
  O17      1.0000 0.27122  0.12333  0.46415  Biso   1.000  O
  O18      1.0000 0.27668  0.62738  0.48091  Biso   1.000  O
  O19      1.0000 0.77741  0.12895  0.48117  Biso   1.000  O
  O20      1.0000 0.77560  0.62813  0.48206  Biso   1.000  O
  O21      1.0000 0.29178  0.13683  0.94273  Biso   1.000  O
  O22      1.0000 0.27645  0.62415  0.98231  Biso   1.000  O
  O23      1.0000 0.77591  0.12144  0.98167  Biso   1.000  O
  O24      1.0000 0.77508  0.62068  0.98168  Biso   1.000  O
  O25      1.0000 0.22337  0.38187  0.01521  Biso   1.000  O
  O26      1.0000 0.22405  0.88717  0.02723  Biso   1.000  O
  O27      1.0000 0.72637  0.37823  0.02010  Biso   1.000  O
  O28      1.0000 0.72243  0.87826  0.02076  Biso   1.000  O
  O29      1.0000 0.22535  0.37028  0.51544  Biso   1.000  O
  O30      1.0000 0.22678  0.86623  0.52872  Biso   1.000  O
  O31      1.0000 0.72597  0.37140  0.51874  Biso   1.000  O
  O32      1.0000 0.72127  0.87094  0.52221  Biso   1.000  O
