data_image0
_cell_length_a       10.0105
_cell_length_b       5.10237
_cell_length_c       10.0105
_cell_angle_alpha    90
_cell_angle_beta     90
_cell_angle_gamma    89.9999

_symmetry_space_group_name_H-M    "P 1"
_symmetry_int_tables_number       1

loop_
  _symmetry_equiv_pos_as_xyz
  'x, y, z'

loop_
  _atom_site_label
  _atom_site_occupancy
  _atom_site_fract_x
  _atom_site_fract_y
  _atom_site_fract_z
  _atom_site_thermal_displace_type
  _atom_site_B_iso_or_equiv
  _atom_site_type_symbol
  Zr1      1.0000 0.12491  0.00011  0.12491  Biso   1.000  Zr
  Hf1      1.0000 0.12491  0.50010  0.37508  Biso   1.000  Hf
  Hf2      1.0000 0.37508  0.50011  0.12491  Biso   1.000  Hf
  Hf3      1.0000 0.37504  0.00039  0.37504  Biso   1.000  Hf
  Hf4      1.0000 0.99992  0.29577  0.99992  Biso   1.000  Hf
  Hf5      1.0000 0.99914  0.20586  0.25067  Biso   1.000  Hf
  Hf6      1.0000 0.99992  0.70444  0.24990  Biso   1.000  Hf
  Hf7      1.0000 0.99914  0.79436  0.99914  Biso   1.000  Hf
  Hf8      1.0000 0.24990  0.29577  0.24990  Biso   1.000  Hf
  Hf9      1.0000 0.25068  0.20586  0.99914  Biso   1.000  Hf
  Hf10     1.0000 0.24990  0.70444  0.99992  Biso   1.000  Hf
  Hf11     1.0000 0.25067  0.79435  0.25068  Biso   1.000  Hf
  Hf12     1.0000 0.12491  0.00011  0.62491  Biso   1.000  Hf
  Hf13     1.0000 0.12491  0.50010  0.87474  Biso   1.000  Hf
  Hf14     1.0000 0.37485  0.50011  0.62491  Biso   1.000  Hf
  Hf15     1.0000 0.37504  0.99982  0.87478  Biso   1.000  Hf
  Hf16     1.0000 0.00034  0.29578  0.50052  Biso   1.000  Hf
  Hf17     1.0000 0.99976  0.20436  0.75014  Biso   1.000  Hf
  Hf18     1.0000 0.00034  0.70444  0.74930  Biso   1.000  Hf
  Hf19     1.0000 0.99976  0.79586  0.49967  Biso   1.000  Hf
  Hf20     1.0000 0.24948  0.29578  0.74930  Biso   1.000  Hf
  Hf21     1.0000 0.25006  0.20436  0.49967  Biso   1.000  Hf
  Hf22     1.0000 0.24948  0.70444  0.50052  Biso   1.000  Hf
  Hf23     1.0000 0.25005  0.79586  0.75014  Biso   1.000  Hf
  Hf24     1.0000 0.62491  0.00011  0.12491  Biso   1.000  Hf
  Hf25     1.0000 0.62491  0.50010  0.37485  Biso   1.000  Hf
  Hf26     1.0000 0.87474  0.50011  0.12491  Biso   1.000  Hf
  Hf27     1.0000 0.87478  0.99982  0.37504  Biso   1.000  Hf
  Hf28     1.0000 0.50052  0.29578  0.00034  Biso   1.000  Hf
  Hf29     1.0000 0.49967  0.20436  0.25006  Biso   1.000  Hf
  Hf30     1.0000 0.50052  0.70443  0.24948  Biso   1.000  Hf
  Hf31     1.0000 0.49968  0.79585  0.99976  Biso   1.000  Hf
  Hf32     1.0000 0.74930  0.29578  0.24947  Biso   1.000  Hf
  Hf33     1.0000 0.75014  0.20436  0.99976  Biso   1.000  Hf
  Hf34     1.0000 0.74930  0.70444  0.00034  Biso   1.000  Hf
  Hf35     1.0000 0.75014  0.79586  0.25005  Biso   1.000  Hf
  Hf36     1.0000 0.62491  0.00011  0.62491  Biso   1.000  Hf
  Hf37     1.0000 0.62491  0.50010  0.87497  Biso   1.000  Hf
  Hf38     1.0000 0.87497  0.50011  0.62491  Biso   1.000  Hf
  Hf39     1.0000 0.87478  0.00039  0.87478  Biso   1.000  Hf
  Hf40     1.0000 0.50016  0.29599  0.50016  Biso   1.000  Hf
  Hf41     1.0000 0.49978  0.20428  0.75004  Biso   1.000  Hf
  Hf42     1.0000 0.50016  0.70423  0.74966  Biso   1.000  Hf
  Hf43     1.0000 0.49978  0.79593  0.49978  Biso   1.000  Hf
  Hf44     1.0000 0.74966  0.29598  0.74965  Biso   1.000  Hf
  Hf45     1.0000 0.75004  0.20428  0.49978  Biso   1.000  Hf
  Hf46     1.0000 0.74965  0.70423  0.50016  Biso   1.000  Hf
  Hf47     1.0000 0.75004  0.79594  0.75004  Biso   1.000  Hf
