data_image0
_cell_length_a       5.10543
_cell_length_b       10.2774
_cell_length_c       10.1178
_cell_angle_alpha    87.992
_cell_angle_beta     91.4159
_cell_angle_gamma    91.8543

_symmetry_space_group_name_H-M    "P 1"
_symmetry_int_tables_number       1

loop_
  _symmetry_equiv_pos_as_xyz
  'x, y, z'

loop_
  _atom_site_label
  _atom_site_occupancy
  _atom_site_fract_x
  _atom_site_fract_y
  _atom_site_fract_z
  _atom_site_thermal_displace_type
  _atom_site_B_iso_or_equiv
  _atom_site_type_symbol
  Hf1      1.0000 0.26733  0.98319  0.09259  Biso   1.000  Hf
  Hf2      1.0000 0.24812  0.23049  0.39168  Biso   1.000  Hf
  Hf3      1.0000 0.69006  0.26328  0.12352  Biso   1.000  Hf
  Hf4      1.0000 0.73994  0.48252  0.36588  Biso   1.000  Hf
  Hf5      1.0000 0.91838  0.17220  0.26814  Biso   1.000  Hf
  Hf6      1.0000 0.05857  0.06665  0.47482  Biso   1.000  Hf
  Hf7      1.0000 0.94209  0.42337  0.20367  Biso   1.000  Hf
  Hf8      1.0000 0.96882  0.33434  0.47952  Biso   1.000  Hf
  Hf9      1.0000 0.43331  0.11288  0.24312  Biso   1.000  Hf
  Hf10     1.0000 0.55097  0.13320  0.49780  Biso   1.000  Hf
  Hf11     1.0000 0.48429  0.38234  0.49657  Biso   1.000  Hf
  Hf12     1.0000 0.44802  0.37013  0.24801  Biso   1.000  Hf
  Hf13     1.0000 0.29946  0.00066  0.61918  Biso   1.000  Hf
  Hf14     1.0000 0.22654  0.24748  0.85124  Biso   1.000  Hf
  Hf15     1.0000 0.73238  0.26230  0.62807  Biso   1.000  Hf
  Hf16     1.0000 0.73069  0.48895  0.87660  Biso   1.000  Hf
  Hf17     1.0000 0.00361  0.14045  0.71915  Biso   1.000  Hf
  Hf18     1.0000 0.98309  0.10214  0.98668  Biso   1.000  Hf
  Hf19     1.0000 0.98748  0.40421  0.72670  Biso   1.000  Hf
  Hf20     1.0000 0.92153  0.33478  0.96179  Biso   1.000  Hf
  Hf21     1.0000 0.50872  0.11267  0.75115  Biso   1.000  Hf
  Hf22     1.0000 0.45748  0.14717  0.99669  Biso   1.000  Hf
  Hf23     1.0000 0.44015  0.39367  0.99337  Biso   1.000  Hf
  Hf24     1.0000 0.49114  0.36447  0.74350  Biso   1.000  Hf
  Hf25     1.0000 0.26733  0.53078  0.11801  Biso   1.000  Hf
  Hf26     1.0000 0.27187  0.74079  0.36891  Biso   1.000  Hf
  Hf27     1.0000 0.74955  0.76977  0.11873  Biso   1.000  Hf
  Hf28     1.0000 0.74795  0.00086  0.35522  Biso   1.000  Hf
  Hf29     1.0000 0.06958  0.68214  0.19929  Biso   1.000  Hf
  Hf30     1.0000 0.06259  0.57516  0.44567  Biso   1.000  Hf
  Hf31     1.0000 0.95250  0.92932  0.20504  Biso   1.000  Hf
  Hf32     1.0000 0.95459  0.82586  0.44708  Biso   1.000  Hf
  Hf33     1.0000 0.55324  0.61964  0.24018  Biso   1.000  Hf
  Hf34     1.0000 0.53903  0.63245  0.48758  Biso   1.000  Hf
  Hf35     1.0000 0.48102  0.88533  0.48557  Biso   1.000  Hf
  Hf36     1.0000 0.48329  0.86283  0.23380  Biso   1.000  Hf
  Hf37     1.0000 0.26670  0.50546  0.61404  Biso   1.000  Hf
  Hf38     1.0000 0.27208  0.74202  0.85212  Biso   1.000  Hf
  Hf39     1.0000 0.75583  0.75531  0.60815  Biso   1.000  Hf
  Hf40     1.0000 0.79645  0.99229  0.85157  Biso   1.000  Hf
  Hf41     1.0000 0.06987  0.66131  0.68975  Biso   1.000  Hf
  Hf42     1.0000 0.05760  0.58875  0.94582  Biso   1.000  Hf
  Hf43     1.0000 0.02611  0.89318  0.72498  Biso   1.000  Hf
  Hf44     1.0000 0.02401  0.84463  0.97115  Biso   1.000  Hf
  Hf45     1.0000 0.53956  0.60909  0.73541  Biso   1.000  Hf
  Hf46     1.0000 0.54521  0.64484  0.98479  Biso   1.000  Hf
  Hf47     1.0000 0.52933  0.89296  0.97589  Biso   1.000  Hf
  Hf48     1.0000 0.53316  0.86001  0.73137  Biso   1.000  Hf
  Zr1      1.0000 0.18993  0.25283  0.11717  Biso   1.000  Zr
