data_image0
_cell_length_a       9.95836
_cell_length_b       10.3661
_cell_length_c       9.99831
_cell_angle_alpha    90.0099
_cell_angle_beta     90.0173
_cell_angle_gamma    90.001

_symmetry_space_group_name_H-M    "P 1"
_symmetry_int_tables_number       1

loop_
  _symmetry_equiv_pos_as_xyz
  'x, y, z'

loop_
  _atom_site_label
  _atom_site_occupancy
  _atom_site_fract_x
  _atom_site_fract_y
  _atom_site_fract_z
  _atom_site_thermal_displace_type
  _atom_site_B_iso_or_equiv
  _atom_site_type_symbol
  Zr1      1.0000 0.13351  0.01592  0.12627  Biso   1.000  Zr
  Hf1      1.0000 0.13402  0.23371  0.37621  Biso   1.000  Hf
  Hf2      1.0000 0.36594  0.26644  0.12601  Biso   1.000  Hf
  Hf3      1.0000 0.36594  0.48352  0.37602  Biso   1.000  Hf
  Hf4      1.0000 0.03617  0.18521  0.19447  Biso   1.000  Hf
  Hf5      1.0000 0.03656  0.06549  0.44370  Biso   1.000  Hf
  Hf6      1.0000 0.46350  0.43439  0.19411  Biso   1.000  Hf
  Hf7      1.0000 0.46344  0.31551  0.44402  Biso   1.000  Hf
  Hf8      1.0000 0.27118  0.11824  0.25016  Biso   1.000  Hf
  Hf9      1.0000 0.27068  0.13217  0.49988  Biso   1.000  Hf
  Hf10     1.0000 0.22935  0.38228  0.49990  Biso   1.000  Hf
  Hf11     1.0000 0.22921  0.36776  0.24985  Biso   1.000  Hf
  Hf12     1.0000 0.13399  0.01645  0.62598  Biso   1.000  Hf
  Hf13     1.0000 0.13410  0.23373  0.87578  Biso   1.000  Hf
  Hf14     1.0000 0.36602  0.26640  0.62599  Biso   1.000  Hf
  Hf15     1.0000 0.36609  0.48354  0.87607  Biso   1.000  Hf
  Hf16     1.0000 0.03677  0.18470  0.69341  Biso   1.000  Hf
  Hf17     1.0000 0.03641  0.06614  0.94260  Biso   1.000  Hf
  Hf18     1.0000 0.46358  0.43439  0.69406  Biso   1.000  Hf
  Hf19     1.0000 0.46372  0.31575  0.94408  Biso   1.000  Hf
  Hf20     1.0000 0.27073  0.11775  0.74969  Biso   1.000  Hf
  Hf21     1.0000 0.27113  0.13268  0.99933  Biso   1.000  Hf
  Hf22     1.0000 0.22940  0.38239  0.99986  Biso   1.000  Hf
  Hf23     1.0000 0.22949  0.36784  0.74979  Biso   1.000  Hf
  Hf24     1.0000 0.13393  0.51645  0.12602  Biso   1.000  Hf
  Hf25     1.0000 0.13398  0.73338  0.37622  Biso   1.000  Hf
  Hf26     1.0000 0.36626  0.76623  0.12594  Biso   1.000  Hf
  Hf27     1.0000 0.36609  0.98345  0.37606  Biso   1.000  Hf
  Hf28     1.0000 0.03650  0.68468  0.19411  Biso   1.000  Hf
  Hf29     1.0000 0.03648  0.56555  0.44418  Biso   1.000  Hf
  Hf30     1.0000 0.46349  0.93449  0.19398  Biso   1.000  Hf
  Hf31     1.0000 0.46359  0.81560  0.44426  Biso   1.000  Hf
  Hf32     1.0000 0.27057  0.61749  0.24986  Biso   1.000  Hf
  Hf33     1.0000 0.27071  0.63221  0.49993  Biso   1.000  Hf
  Hf34     1.0000 0.22932  0.88223  0.49991  Biso   1.000  Hf
  Hf35     1.0000 0.23019  0.86690  0.25037  Biso   1.000  Hf
  Hf36     1.0000 0.13407  0.51644  0.62611  Biso   1.000  Hf
  Hf37     1.0000 0.13414  0.73356  0.87603  Biso   1.000  Hf
  Hf38     1.0000 0.36599  0.76646  0.62609  Biso   1.000  Hf
  Hf39     1.0000 0.36619  0.98366  0.87592  Biso   1.000  Hf
  Hf40     1.0000 0.03657  0.68446  0.69409  Biso   1.000  Hf
  Hf41     1.0000 0.03650  0.56579  0.94402  Biso   1.000  Hf
  Hf42     1.0000 0.46358  0.93440  0.69404  Biso   1.000  Hf
  Hf43     1.0000 0.46399  0.81568  0.94408  Biso   1.000  Hf
  Hf44     1.0000 0.27075  0.61777  0.74990  Biso   1.000  Hf
  Hf45     1.0000 0.27072  0.63217  0.99988  Biso   1.000  Hf
  Hf46     1.0000 0.23031  0.88178  0.99938  Biso   1.000  Hf
  Hf47     1.0000 0.22933  0.86781  0.74977  Biso   1.000  Hf
  Hf48     1.0000 0.63403  0.01643  0.12609  Biso   1.000  Hf
  Hf49     1.0000 0.63394  0.23357  0.37602  Biso   1.000  Hf
  Hf50     1.0000 0.86580  0.26665  0.12608  Biso   1.000  Hf
  Hf51     1.0000 0.86595  0.48357  0.37611  Biso   1.000  Hf
  Hf52     1.0000 0.53661  0.18447  0.19393  Biso   1.000  Hf
  Hf53     1.0000 0.53658  0.06556  0.44409  Biso   1.000  Hf
  Hf54     1.0000 0.96326  0.43480  0.19401  Biso   1.000  Hf
  Hf55     1.0000 0.96345  0.31571  0.44412  Biso   1.000  Hf
  Hf56     1.0000 0.77063  0.11775  0.25001  Biso   1.000  Hf
  Hf57     1.0000 0.77060  0.13231  0.50001  Biso   1.000  Hf
  Hf58     1.0000 0.72930  0.38225  0.49990  Biso   1.000  Hf
  Hf59     1.0000 0.72925  0.36780  0.24994  Biso   1.000  Hf
  Hf60     1.0000 0.63398  0.01651  0.62615  Biso   1.000  Hf
  Hf61     1.0000 0.63408  0.23360  0.87609  Biso   1.000  Hf
  Hf62     1.0000 0.86602  0.26655  0.62606  Biso   1.000  Hf
  Hf63     1.0000 0.86606  0.48355  0.87609  Biso   1.000  Hf
  Hf64     1.0000 0.53652  0.18442  0.69411  Biso   1.000  Hf
  Hf65     1.0000 0.53674  0.06559  0.94397  Biso   1.000  Hf
  Hf66     1.0000 0.96359  0.43448  0.69419  Biso   1.000  Hf
  Hf67     1.0000 0.96362  0.31576  0.94418  Biso   1.000  Hf
  Hf68     1.0000 0.77075  0.11783  0.74989  Biso   1.000  Hf
  Hf69     1.0000 0.77081  0.13224  0.99993  Biso   1.000  Hf
  Hf70     1.0000 0.72935  0.38232  0.99989  Biso   1.000  Hf
  Hf71     1.0000 0.72939  0.36778  0.74993  Biso   1.000  Hf
  Hf72     1.0000 0.63392  0.51637  0.12608  Biso   1.000  Hf
  Hf73     1.0000 0.63393  0.73348  0.37625  Biso   1.000  Hf
  Hf74     1.0000 0.86560  0.76621  0.12626  Biso   1.000  Hf
  Hf75     1.0000 0.86557  0.98359  0.37654  Biso   1.000  Hf
  Hf76     1.0000 0.53654  0.68430  0.19421  Biso   1.000  Hf
  Hf77     1.0000 0.53646  0.56551  0.44412  Biso   1.000  Hf
  Hf78     1.0000 0.96234  0.93449  0.19466  Biso   1.000  Hf
  Hf79     1.0000 0.96342  0.81556  0.44408  Biso   1.000  Hf
  Hf80     1.0000 0.77058  0.61773  0.24996  Biso   1.000  Hf
  Hf81     1.0000 0.77067  0.63221  0.49993  Biso   1.000  Hf
  Hf82     1.0000 0.72921  0.88216  0.50017  Biso   1.000  Hf
  Hf83     1.0000 0.72891  0.86767  0.25013  Biso   1.000  Hf
  Hf84     1.0000 0.63401  0.51641  0.62609  Biso   1.000  Hf
  Hf85     1.0000 0.63410  0.73353  0.87603  Biso   1.000  Hf
  Hf86     1.0000 0.86604  0.76639  0.62607  Biso   1.000  Hf
  Hf87     1.0000 0.86581  0.98349  0.87597  Biso   1.000  Hf
  Hf88     1.0000 0.53656  0.68440  0.69407  Biso   1.000  Hf
  Hf89     1.0000 0.53654  0.56566  0.94416  Biso   1.000  Hf
  Hf90     1.0000 0.96342  0.93444  0.69395  Biso   1.000  Hf
  Hf91     1.0000 0.96406  0.81607  0.94474  Biso   1.000  Hf
  Hf92     1.0000 0.77077  0.61774  0.74989  Biso   1.000  Hf
  Hf93     1.0000 0.77073  0.63224  0.99991  Biso   1.000  Hf
  Hf94     1.0000 0.72949  0.88216  0.00005  Biso   1.000  Hf
  Hf95     1.0000 0.72943  0.86775  0.75001  Biso   1.000  Hf
