data_image0
_cell_length_a       10.1485
_cell_length_b       10.3658
_cell_length_c       5.24797
_cell_angle_alpha    90.0012
_cell_angle_beta     91.5628
_cell_angle_gamma    89.9791

_symmetry_space_group_name_H-M    "P 1"
_symmetry_int_tables_number       1

loop_
  _symmetry_equiv_pos_as_xyz
  'x, y, z'

loop_
  _atom_site_label
  _atom_site_occupancy
  _atom_site_fract_x
  _atom_site_fract_y
  _atom_site_fract_z
  _atom_site_thermal_displace_type
  _atom_site_B_iso_or_equiv
  _atom_site_type_symbol
  La1      1.0000 0.11465  0.00603  0.29889  Biso   1.000  La
  Hf1      1.0000 0.14286  0.51788  0.32192  Biso   1.000  Hf
  Hf2      1.0000 0.14284  0.23211  0.82195  Biso   1.000  Hf
  La2      1.0000 0.11477  0.74392  0.79895  Biso   1.000  La
  Hf3      1.0000 0.35761  0.26715  0.33040  Biso   1.000  Hf
  Hf4      1.0000 0.36662  0.76672  0.31837  Biso   1.000  Hf
  Hf5      1.0000 0.35763  0.48276  0.83041  Biso   1.000  Hf
  Hf6      1.0000 0.36666  0.98328  0.81843  Biso   1.000  Hf
  Hf7      1.0000 0.63795  0.02217  0.16291  Biso   1.000  Hf
  Hf8      1.0000 0.63659  0.51796  0.15351  Biso   1.000  Hf
  Hf9      1.0000 0.63666  0.23196  0.65354  Biso   1.000  Hf
  Hf10     1.0000 0.63794  0.72771  0.66290  Biso   1.000  Hf
  Hf11     1.0000 0.85773  0.27255  0.15554  Biso   1.000  Hf
  Hf12     1.0000 0.85294  0.76915  0.19532  Biso   1.000  Hf
  Hf13     1.0000 0.85778  0.47735  0.65559  Biso   1.000  Hf
  Hf14     1.0000 0.85300  0.98071  0.69544  Biso   1.000  Hf
  O1       1.0000 0.03962  0.19962  0.17426  Biso   1.000  O 
  O2       1.0000 0.02460  0.66328  0.19438  Biso   1.000  O 
  O3       1.0000 0.02473  0.08648  0.69494  Biso   1.000  O 
  O4       1.0000 0.03944  0.55051  0.67384  Biso   1.000  O 
  O5       1.0000 0.46862  0.41285  0.15698  Biso   1.000  O 
  O6       1.0000 0.47561  0.91469  0.15583  Biso   1.000  O 
  O7       1.0000 0.46860  0.33710  0.65691  Biso   1.000  O 
  O8       1.0000 0.47556  0.83528  0.65584  Biso   1.000  O 
  O9       1.0000 0.27805  0.13098  0.58046  Biso   1.000  O 
  O10      1.0000 0.28334  0.61720  0.55873  Biso   1.000  O 
  O11      1.0000 0.28339  0.13276  0.05883  Biso   1.000  O 
  O12      1.0000 0.27806  0.61901  0.08043  Biso   1.000  O 
  O13      1.0000 0.22432  0.37249  0.57236  Biso   1.000  O 
  O14      1.0000 0.24987  0.87891  0.55048  Biso   1.000  O 
  O15      1.0000 0.22435  0.37750  0.07233  Biso   1.000  O 
  O16      1.0000 0.24988  0.87114  0.05049  Biso   1.000  O 
  O17      1.0000 0.53395  0.16598  0.32762  Biso   1.000  O 
  O18      1.0000 0.53914  0.66560  0.32247  Biso   1.000  O 
  O19      1.0000 0.53917  0.08435  0.82250  Biso   1.000  O 
  O20      1.0000 0.53385  0.58398  0.82758  Biso   1.000  O 
  O21      1.0000 0.95944  0.42452  0.30700  Biso   1.000  O 
  O22      1.0000 0.96209  0.85279  0.49513  Biso   1.000  O 
  O23      1.0000 0.95931  0.32531  0.80711  Biso   1.000  O 
  O24      1.0000 0.96204  0.89710  0.99525  Biso   1.000  O 
  O25      1.0000 0.77080  0.12805  0.92503  Biso   1.000  O 
  O26      1.0000 0.78129  0.62493  0.92037  Biso   1.000  O 
  O27      1.0000 0.78140  0.12493  0.42039  Biso   1.000  O 
  O28      1.0000 0.77079  0.62184  0.42493  Biso   1.000  O 
  O29      1.0000 0.72341  0.37655  0.90490  Biso   1.000  O 
  O30      1.0000 0.72054  0.86897  0.92042  Biso   1.000  O 
  O31      1.0000 0.72351  0.37336  0.40491  Biso   1.000  O 
  O32      1.0000 0.72055  0.88089  0.42054  Biso   1.000  O 
