data_image0
_cell_length_a       10.2112
_cell_length_b       5.17882
_cell_length_c       10.4429
_cell_angle_alpha    90.1669
_cell_angle_beta     91.5514
_cell_angle_gamma    89.9744

_symmetry_space_group_name_H-M    "P 1"
_symmetry_int_tables_number       1

loop_
  _symmetry_equiv_pos_as_xyz
  'x, y, z'

loop_
  _atom_site_label
  _atom_site_occupancy
  _atom_site_fract_x
  _atom_site_fract_y
  _atom_site_fract_z
  _atom_site_thermal_displace_type
  _atom_site_B_iso_or_equiv
  _atom_site_type_symbol
  La1      1.0000 0.12512  0.01186  0.14999  Biso   1.000  La
  Hf1      1.0000 0.13927  0.04526  0.66852  Biso   1.000  Hf
  La2      1.0000 0.12619  0.47266  0.40430  Biso   1.000  La
  Hf2      1.0000 0.14421  0.46771  0.91441  Biso   1.000  Hf
  Hf3      1.0000 0.37053  0.53177  0.16488  Biso   1.000  Hf
  Hf4      1.0000 0.35874  0.54275  0.66649  Biso   1.000  Hf
  Hf5      1.0000 0.36250  0.97010  0.41666  Biso   1.000  Hf
  Hf6      1.0000 0.36799  0.96220  0.91639  Biso   1.000  Hf
  Hf7      1.0000 0.64530  0.03899  0.07938  Biso   1.000  Hf
  Hf8      1.0000 0.63620  0.04002  0.58528  Biso   1.000  Hf
  Hf9      1.0000 0.64151  0.45708  0.33446  Biso   1.000  Hf
  Hf10     1.0000 0.63892  0.46158  0.83035  Biso   1.000  Hf
  Hf11     1.0000 0.86005  0.53470  0.08030  Biso   1.000  Hf
  Hf12     1.0000 0.85619  0.53590  0.58934  Biso   1.000  Hf
  Hf13     1.0000 0.84912  0.96383  0.33792  Biso   1.000  Hf
  Hf14     1.0000 0.86607  0.95803  0.83286  Biso   1.000  Hf
  O1       1.0000 0.04733  0.43017  0.10673  Biso   1.000  O 
  O2       1.0000 0.02818  0.34833  0.60672  Biso   1.000  O 
  O3       1.0000 0.03282  0.06646  0.35813  Biso   1.000  O 
  O4       1.0000 0.04204  0.14272  0.85420  Biso   1.000  O 
  O5       1.0000 0.47803  0.82744  0.07760  Biso   1.000  O 
  O6       1.0000 0.47170  0.82070  0.57988  Biso   1.000  O 
  O7       1.0000 0.47984  0.68255  0.33027  Biso   1.000  O 
  O8       1.0000 0.47065  0.67536  0.82741  Biso   1.000  O 
  O9       1.0000 0.29205  0.24824  0.28760  Biso   1.000  O 
  O10      1.0000 0.27457  0.25296  0.78957  Biso   1.000  O 
  O11      1.0000 0.28329  0.25319  0.03140  Biso   1.000  O 
  O12      1.0000 0.27847  0.25042  0.54695  Biso   1.000  O 
  O13      1.0000 0.25338  0.75267  0.28259  Biso   1.000  O 
  O14      1.0000 0.22481  0.74801  0.78824  Biso   1.000  O 
  O15      1.0000 0.24924  0.72954  0.02669  Biso   1.000  O 
  O16      1.0000 0.23112  0.77431  0.54522  Biso   1.000  O 
  O17      1.0000 0.53941  0.32264  0.16751  Biso   1.000  O 
  O18      1.0000 0.53130  0.32918  0.66801  Biso   1.000  O 
  O19      1.0000 0.53376  0.17603  0.41991  Biso   1.000  O 
  O20      1.0000 0.53766  0.17457  0.91675  Biso   1.000  O 
  O21      1.0000 0.91297  0.88405  0.14934  Biso   1.000  O 
  O22      1.0000 0.96233  0.84756  0.66106  Biso   1.000  O 
  O23      1.0000 0.91710  0.61523  0.40157  Biso   1.000  O 
  O24      1.0000 0.96491  0.65122  0.91027  Biso   1.000  O 
  O25      1.0000 0.77913  0.24628  0.95831  Biso   1.000  O 
  O26      1.0000 0.77059  0.23725  0.46649  Biso   1.000  O 
  O27      1.0000 0.77619  0.26650  0.21285  Biso   1.000  O 
  O28      1.0000 0.77324  0.25191  0.71264  Biso   1.000  O 
  O29      1.0000 0.72704  0.74769  0.95565  Biso   1.000  O 
  O30      1.0000 0.71274  0.74646  0.46563  Biso   1.000  O 
  O31      1.0000 0.70973  0.75518  0.21258  Biso   1.000  O 
  O32      1.0000 0.72647  0.75073  0.71069  Biso   1.000  O 
