data_image0
_cell_length_a       10.0831
_cell_length_b       10.2849
_cell_length_c       5.25401
_cell_angle_alpha    90.5005
_cell_angle_beta     90.974
_cell_angle_gamma    90.1313

_symmetry_space_group_name_H-M    "P 1"
_symmetry_int_tables_number       1

loop_
  _symmetry_equiv_pos_as_xyz
  'x, y, z'

loop_
  _atom_site_label
  _atom_site_occupancy
  _atom_site_fract_x
  _atom_site_fract_y
  _atom_site_fract_z
  _atom_site_thermal_displace_type
  _atom_site_B_iso_or_equiv
  _atom_site_type_symbol
  La1      1.0000 0.11921  0.00098  0.29686  Biso   1.000  La
  Hf1      1.0000 0.13595  0.51999  0.33505  Biso   1.000  Hf
  Hf2      1.0000 0.13540  0.23155  0.82705  Biso   1.000  Hf
  Hf3      1.0000 0.13799  0.73025  0.84477  Biso   1.000  Hf
  Hf4      1.0000 0.35595  0.26697  0.33344  Biso   1.000  Hf
  Hf5      1.0000 0.35915  0.75841  0.35366  Biso   1.000  Hf
  Hf6      1.0000 0.36047  0.47432  0.83976  Biso   1.000  Hf
  Hf7      1.0000 0.36210  0.98882  0.81008  Biso   1.000  Hf
  Hf8      1.0000 0.64632  0.02634  0.16158  Biso   1.000  Hf
  Hf9      1.0000 0.63638  0.51923  0.15152  Biso   1.000  Hf
  Hf10     1.0000 0.63797  0.22915  0.65458  Biso   1.000  Hf
  Hf11     1.0000 0.63759  0.72977  0.65581  Biso   1.000  Hf
  Hf12     1.0000 0.86207  0.27795  0.15290  Biso   1.000  Hf
  Hf13     1.0000 0.85883  0.76772  0.17217  Biso   1.000  Hf
  Hf14     1.0000 0.85946  0.48284  0.65602  Biso   1.000  Hf
  Hf15     1.0000 0.85995  0.97804  0.67989  Biso   1.000  Hf
  O1       1.0000 0.03322  0.18769  0.15791  Biso   1.000  O 
  O2       1.0000 0.03116  0.66061  0.15190  Biso   1.000  O 
  O3       1.0000 0.02189  0.09063  0.67518  Biso   1.000  O 
  O4       1.0000 0.03012  0.59552  0.65536  Biso   1.000  O 
  O5       1.0000 0.46810  0.41066  0.15819  Biso   1.000  O 
  O6       1.0000 0.46752  0.33431  0.65651  Biso   1.000  O 
  O7       1.0000 0.47569  0.84622  0.64274  Biso   1.000  O 
  O8       1.0000 0.27548  0.12656  0.57521  Biso   1.000  O 
  O9       1.0000 0.27677  0.61880  0.58402  Biso   1.000  O 
  O10      1.0000 0.28328  0.13257  0.05569  Biso   1.000  O 
  O11      1.0000 0.27021  0.62022  0.08283  Biso   1.000  O 
  O12      1.0000 0.22216  0.37400  0.58187  Biso   1.000  O 
  O13      1.0000 0.22934  0.86244  0.59121  Biso   1.000  O 
  O14      1.0000 0.22270  0.37730  0.08474  Biso   1.000  O 
  O15      1.0000 0.27207  0.86454  0.06959  Biso   1.000  O 
  O16      1.0000 0.52875  0.15504  0.33853  Biso   1.000  O 
  O17      1.0000 0.53207  0.66485  0.32880  Biso   1.000  O 
  O18      1.0000 0.53738  0.08236  0.83913  Biso   1.000  O 
  O19      1.0000 0.52880  0.58882  0.83208  Biso   1.000  O 
  O20      1.0000 0.96113  0.42442  0.33179  Biso   1.000  O 
  O21      1.0000 0.95943  0.86105  0.44856  Biso   1.000  O 
  O22      1.0000 0.96472  0.34379  0.82698  Biso   1.000  O 
  O23      1.0000 0.98646  0.87032  0.93678  Biso   1.000  O 
  O24      1.0000 0.77315  0.12823  0.92180  Biso   1.000  O 
  O25      1.0000 0.77492  0.62488  0.91130  Biso   1.000  O 
  O26      1.0000 0.78028  0.12637  0.41779  Biso   1.000  O 
  O27      1.0000 0.76992  0.62630  0.41221  Biso   1.000  O 
  O28      1.0000 0.72146  0.37694  0.90464  Biso   1.000  O 
  O29      1.0000 0.72815  0.87185  0.91622  Biso   1.000  O 
  O30      1.0000 0.72143  0.37580  0.40855  Biso   1.000  O 
  O31      1.0000 0.71536  0.88075  0.40828  Biso   1.000  O 
