data_image0
_cell_length_a       10.0719
_cell_length_b       10.3127
_cell_length_c       5.22595
_cell_angle_alpha    90.6017
_cell_angle_beta     91.3456
_cell_angle_gamma    90.4704

_symmetry_space_group_name_H-M    "P 1"
_symmetry_int_tables_number       1

loop_
  _symmetry_equiv_pos_as_xyz
  'x, y, z'

loop_
  _atom_site_label
  _atom_site_occupancy
  _atom_site_fract_x
  _atom_site_fract_y
  _atom_site_fract_z
  _atom_site_thermal_displace_type
  _atom_site_B_iso_or_equiv
  _atom_site_type_symbol
  La1      1.0000 0.11485  0.00163  0.28811  Biso   1.000  La
  Hf1      1.0000 0.13750  0.52548  0.32287  Biso   1.000  Hf
  Hf2      1.0000 0.13027  0.23720  0.83105  Biso   1.000  Hf
  Hf3      1.0000 0.11227  0.75327  0.79266  Biso   1.000  Hf
  Hf4      1.0000 0.36193  0.27579  0.31753  Biso   1.000  Hf
  Hf5      1.0000 0.36457  0.76382  0.33306  Biso   1.000  Hf
  Hf6      1.0000 0.35464  0.48446  0.83113  Biso   1.000  Hf
  Hf7      1.0000 0.37139  0.96984  0.84396  Biso   1.000  Hf
  Hf8      1.0000 0.64115  0.02161  0.16618  Biso   1.000  Hf
  Hf9      1.0000 0.63816  0.51867  0.15219  Biso   1.000  Hf
  Hf10     1.0000 0.63475  0.23012  0.65729  Biso   1.000  Hf
  Hf11     1.0000 0.63960  0.72660  0.66161  Biso   1.000  Hf
  Hf12     1.0000 0.85895  0.27620  0.15850  Biso   1.000  Hf
  Hf13     1.0000 0.86108  0.76324  0.18679  Biso   1.000  Hf
  Hf14     1.0000 0.86014  0.48102  0.65409  Biso   1.000  Hf
  Hf15     1.0000 0.85831  0.98029  0.69135  Biso   1.000  Hf
  O1       1.0000 0.03498  0.19409  0.16836  Biso   1.000  O 
  O2       1.0000 0.03578  0.66731  0.13083  Biso   1.000  O 
  O3       1.0000 0.03185  0.08448  0.67842  Biso   1.000  O 
  O4       1.0000 0.03047  0.58809  0.65024  Biso   1.000  O 
  O5       1.0000 0.46797  0.41179  0.14903  Biso   1.000  O 
  O6       1.0000 0.47330  0.91301  0.16802  Biso   1.000  O 
  O7       1.0000 0.46255  0.33328  0.65418  Biso   1.000  O 
  O8       1.0000 0.47712  0.83283  0.65970  Biso   1.000  O 
  O9       1.0000 0.26897  0.62981  0.58566  Biso   1.000  O 
  O10      1.0000 0.28254  0.13141  0.04131  Biso   1.000  O 
  O11      1.0000 0.28433  0.61487  0.09774  Biso   1.000  O 
  O12      1.0000 0.22205  0.37078  0.56866  Biso   1.000  O 
  O13      1.0000 0.23980  0.87954  0.57639  Biso   1.000  O 
  O14      1.0000 0.22175  0.38003  0.07348  Biso   1.000  O 
  O15      1.0000 0.24265  0.85291  0.05164  Biso   1.000  O 
  O16      1.0000 0.53079  0.16378  0.32905  Biso   1.000  O 
  O17      1.0000 0.53605  0.66277  0.32783  Biso   1.000  O 
  O18      1.0000 0.53852  0.08165  0.82911  Biso   1.000  O 
  O19      1.0000 0.53352  0.58305  0.82615  Biso   1.000  O 
  O20      1.0000 0.95758  0.42993  0.31559  Biso   1.000  O 
  O21      1.0000 0.97416  0.83731  0.50755  Biso   1.000  O 
  O22      1.0000 0.95856  0.33548  0.81574  Biso   1.000  O 
  O23      1.0000 0.97632  0.88758  0.97617  Biso   1.000  O 
  O24      1.0000 0.77471  0.12504  0.92525  Biso   1.000  O 
  O25      1.0000 0.77951  0.62423  0.92026  Biso   1.000  O 
  O26      1.0000 0.78037  0.12569  0.42382  Biso   1.000  O 
  O27      1.0000 0.77152  0.62395  0.41849  Biso   1.000  O 
  O28      1.0000 0.72086  0.37525  0.90640  Biso   1.000  O 
  O29      1.0000 0.72839  0.86845  0.92289  Biso   1.000  O 
  O30      1.0000 0.72047  0.37504  0.40914  Biso   1.000  O 
  O31      1.0000 0.73077  0.88123  0.41828  Biso   1.000  O 
