data_image0
_cell_length_a       10.1322
_cell_length_b       10.3031
_cell_length_c       10.5135
_cell_angle_alpha    90.0001
_cell_angle_beta     90.003
_cell_angle_gamma    90.2367

_symmetry_space_group_name_H-M    "P 1"
_symmetry_int_tables_number       1

loop_
  _symmetry_equiv_pos_as_xyz
  'x, y, z'

loop_
  _atom_site_label
  _atom_site_occupancy
  _atom_site_fract_x
  _atom_site_fract_y
  _atom_site_fract_z
  _atom_site_thermal_displace_type
  _atom_site_B_iso_or_equiv
  _atom_site_type_symbol
  La1      1.0000 0.13267  0.00889  0.16397  Biso   1.000  La
  Hf1      1.0000 0.13905  0.02056  0.67374  Biso   1.000  Hf
  Hf2      1.0000 0.14029  0.52088  0.16950  Biso   1.000  Hf
  Hf3      1.0000 0.13844  0.52110  0.66876  Biso   1.000  Hf
  Hf4      1.0000 0.13798  0.22715  0.42454  Biso   1.000  Hf
  Hf5      1.0000 0.14006  0.23232  0.91791  Biso   1.000  Hf
  Hf6      1.0000 0.14006  0.72780  0.42294  Biso   1.000  Hf
  Hf7      1.0000 0.13968  0.72853  0.91982  Biso   1.000  Hf
  Hf8      1.0000 0.35582  0.26406  0.17308  Biso   1.000  Hf
  Hf9      1.0000 0.36243  0.27071  0.67040  Biso   1.000  Hf
  Hf10     1.0000 0.36474  0.76962  0.17328  Biso   1.000  Hf
  Hf11     1.0000 0.36067  0.77161  0.67107  Biso   1.000  Hf
  Hf12     1.0000 0.36080  0.47776  0.41882  Biso   1.000  Hf
  Hf13     1.0000 0.35469  0.48006  0.91508  Biso   1.000  Hf
  Hf14     1.0000 0.36083  0.97967  0.42497  Biso   1.000  Hf
  Hf15     1.0000 0.36575  0.97991  0.91884  Biso   1.000  Hf
  Hf16     1.0000 0.64027  0.02083  0.08049  Biso   1.000  Hf
  Hf17     1.0000 0.63839  0.02105  0.58125  Biso   1.000  Hf
  La2      1.0000 0.63270  0.50893  0.08598  Biso   1.000  La
  Hf18     1.0000 0.63904  0.52058  0.57623  Biso   1.000  Hf
  Hf19     1.0000 0.63965  0.22850  0.33017  Biso   1.000  Hf
  Hf20     1.0000 0.64008  0.22779  0.82705  Biso   1.000  Hf
  Hf21     1.0000 0.64004  0.73231  0.33211  Biso   1.000  Hf
  Hf22     1.0000 0.63796  0.72717  0.82543  Biso   1.000  Hf
  Hf23     1.0000 0.86473  0.26961  0.07676  Biso   1.000  Hf
  Hf24     1.0000 0.86066  0.27159  0.57895  Biso   1.000  Hf
  Hf25     1.0000 0.85582  0.76405  0.07690  Biso   1.000  Hf
  Hf26     1.0000 0.86241  0.77069  0.57963  Biso   1.000  Hf
  Hf27     1.0000 0.86573  0.47984  0.33117  Biso   1.000  Hf
  Hf28     1.0000 0.86083  0.47962  0.82502  Biso   1.000  Hf
  Hf29     1.0000 0.85466  0.98006  0.33493  Biso   1.000  Hf
  Hf30     1.0000 0.86081  0.97783  0.83118  Biso   1.000  Hf
  O1       1.0000 0.03459  0.18217  0.07895  Biso   1.000  O 
  O2       1.0000 0.03265  0.16736  0.58953  Biso   1.000  O 
  O3       1.0000 0.03455  0.66914  0.08371  Biso   1.000  O 
  O4       1.0000 0.03280  0.66523  0.58453  Biso   1.000  O 
  O5       1.0000 0.02063  0.08864  0.34748  Biso   1.000  O 
  O6       1.0000 0.03362  0.08337  0.83656  Biso   1.000  O 
  O7       1.0000 0.03766  0.58390  0.33534  Biso   1.000  O 
  O8       1.0000 0.03288  0.58451  0.83082  Biso   1.000  O 
  O9       1.0000 0.43819  0.40983  0.07764  Biso   1.000  O 
  O10      1.0000 0.46774  0.41394  0.58021  Biso   1.000  O 
  O11      1.0000 0.46616  0.92293  0.08667  Biso   1.000  O 
  O12      1.0000 0.46716  0.91678  0.58623  Biso   1.000  O 
  O13      1.0000 0.47165  0.33968  0.32826  Biso   1.000  O 
  O14      1.0000 0.46858  0.33534  0.83104  Biso   1.000  O 
  O15      1.0000 0.47047  0.83901  0.33910  Biso   1.000  O 
  O16      1.0000 0.46958  0.83730  0.82969  Biso   1.000  O 
  O17      1.0000 0.27941  0.12638  0.30595  Biso   1.000  O 
  O18      1.0000 0.27617  0.12429  0.79260  Biso   1.000  O 
  O19      1.0000 0.27920  0.62016  0.29317  Biso   1.000  O 
  O20      1.0000 0.27204  0.62620  0.79085  Biso   1.000  O 
  O21      1.0000 0.28529  0.13422  0.03436  Biso   1.000  O 
  O22      1.0000 0.27408  0.12559  0.54852  Biso   1.000  O 
  O23      1.0000 0.27399  0.62173  0.04298  Biso   1.000  O 
  O24      1.0000 0.27585  0.62552  0.54313  Biso   1.000  O 
  O25      1.0000 0.22338  0.37181  0.29402  Biso   1.000  O 
  O26      1.0000 0.22527  0.37478  0.79022  Biso   1.000  O 
  O27      1.0000 0.23388  0.86302  0.30415  Biso   1.000  O 
  O28      1.0000 0.22509  0.87500  0.79322  Biso   1.000  O 
  O29      1.0000 0.21036  0.37824  0.04097  Biso   1.000  O 
  O30      1.0000 0.22564  0.37598  0.54382  Biso   1.000  O 
  O31      1.0000 0.24341  0.86150  0.03294  Biso   1.000  O 
  O32      1.0000 0.22442  0.87601  0.54803  Biso   1.000  O 
  O33      1.0000 0.53455  0.16919  0.16624  Biso   1.000  O 
  O34      1.0000 0.53282  0.16526  0.66547  Biso   1.000  O 
  O35      1.0000 0.53458  0.68220  0.17102  Biso   1.000  O 
  O36      1.0000 0.53263  0.66735  0.66046  Biso   1.000  O 
  O37      1.0000 0.53283  0.08444  0.41910  Biso   1.000  O 
  O38      1.0000 0.53765  0.08387  0.91459  Biso   1.000  O 
  O39      1.0000 0.53356  0.58335  0.41342  Biso   1.000  O 
  O40      1.0000 0.52062  0.58864  0.90251  Biso   1.000  O 
  O41      1.0000 0.96615  0.42288  0.16339  Biso   1.000  O 
  O42      1.0000 0.96714  0.41673  0.66383  Biso   1.000  O 
  O43      1.0000 0.93814  0.90979  0.17239  Biso   1.000  O 
  O44      1.0000 0.96769  0.91393  0.66981  Biso   1.000  O 
  O45      1.0000 0.96958  0.33730  0.42032  Biso   1.000  O 
  O46      1.0000 0.97050  0.33908  0.91094  Biso   1.000  O 
  O47      1.0000 0.96856  0.83533  0.41900  Biso   1.000  O 
  O48      1.0000 0.97163  0.83971  0.92175  Biso   1.000  O 
  O49      1.0000 0.77920  0.12016  0.95683  Biso   1.000  O 
  O50      1.0000 0.77201  0.12614  0.45915  Biso   1.000  O 
  O51      1.0000 0.77938  0.62638  0.94402  Biso   1.000  O 
  O52      1.0000 0.77614  0.62426  0.45737  Biso   1.000  O 
  O53      1.0000 0.77401  0.12173  0.20698  Biso   1.000  O 
  O54      1.0000 0.77587  0.12550  0.70686  Biso   1.000  O 
  O55      1.0000 0.78526  0.63424  0.21562  Biso   1.000  O 
  O56      1.0000 0.77406  0.62559  0.70148  Biso   1.000  O 
  O57      1.0000 0.73392  0.36301  0.94587  Biso   1.000  O 
  O58      1.0000 0.72510  0.37498  0.45676  Biso   1.000  O 
  O59      1.0000 0.72339  0.87185  0.95601  Biso   1.000  O 
  O60      1.0000 0.72525  0.87478  0.45980  Biso   1.000  O 
  O61      1.0000 0.74335  0.36149  0.21706  Biso   1.000  O 
  O62      1.0000 0.72441  0.37598  0.70200  Biso   1.000  O 
  O63      1.0000 0.71029  0.87828  0.20908  Biso   1.000  O 
  O64      1.0000 0.72560  0.87597  0.70620  Biso   1.000  O 
