data_image0
_cell_length_a       10.1004
_cell_length_b       10.2253
_cell_length_c       10.5656
_cell_angle_alpha    90.1211
_cell_angle_beta     90.3851
_cell_angle_gamma    89.702

_symmetry_space_group_name_H-M    "P 1"
_symmetry_int_tables_number       1

loop_
  _symmetry_equiv_pos_as_xyz
  'x, y, z'

loop_
  _atom_site_label
  _atom_site_occupancy
  _atom_site_fract_x
  _atom_site_fract_y
  _atom_site_fract_z
  _atom_site_thermal_displace_type
  _atom_site_B_iso_or_equiv
  _atom_site_type_symbol
  La1      1.0000 0.10815  0.00869  0.15751  Biso   1.000  La
  Hf1      1.0000 0.13871  0.01960  0.67015  Biso   1.000  Hf
  Hf2      1.0000 0.14059  0.51363  0.16891  Biso   1.000  Hf
  Hf3      1.0000 0.13740  0.52472  0.66743  Biso   1.000  Hf
  Hf4      1.0000 0.13928  0.22690  0.42030  Biso   1.000  Hf
  Hf5      1.0000 0.14115  0.24626  0.89465  Biso   1.000  Hf
  Hf6      1.0000 0.13448  0.73010  0.41814  Biso   1.000  Hf
  Hf7      1.0000 0.13792  0.72682  0.92345  Biso   1.000  Hf
  La2      1.0000 0.37358  0.24731  0.15537  Biso   1.000  La
  Hf8      1.0000 0.36355  0.27271  0.66426  Biso   1.000  Hf
  Hf9      1.0000 0.36192  0.77204  0.17276  Biso   1.000  Hf
  Hf10     1.0000 0.36023  0.77458  0.67125  Biso   1.000  Hf
  Hf11     1.0000 0.35694  0.48039  0.41913  Biso   1.000  Hf
  Hf12     1.0000 0.36323  0.48488  0.91879  Biso   1.000  Hf
  Hf13     1.0000 0.35739  0.97814  0.42047  Biso   1.000  Hf
  Hf14     1.0000 0.35815  0.98102  0.91897  Biso   1.000  Hf
  Hf15     1.0000 0.64521  0.01494  0.07299  Biso   1.000  Hf
  Hf16     1.0000 0.63649  0.01993  0.57753  Biso   1.000  Hf
  Hf17     1.0000 0.63517  0.52718  0.07639  Biso   1.000  Hf
  Hf18     1.0000 0.63703  0.52442  0.57740  Biso   1.000  Hf
  Hf19     1.0000 0.63434  0.23999  0.34683  Biso   1.000  Hf
  Hf20     1.0000 0.63593  0.22979  0.82571  Biso   1.000  Hf
  Hf21     1.0000 0.63729  0.73004  0.32863  Biso   1.000  Hf
  Hf22     1.0000 0.63898  0.73053  0.82519  Biso   1.000  Hf
  Hf23     1.0000 0.83949  0.27582  0.08277  Biso   1.000  Hf
  Hf24     1.0000 0.86470  0.27066  0.58227  Biso   1.000  Hf
  Hf25     1.0000 0.86047  0.76282  0.08120  Biso   1.000  Hf
  Hf26     1.0000 0.86109  0.77064  0.58149  Biso   1.000  Hf
  Hf27     1.0000 0.86576  0.47911  0.33089  Biso   1.000  Hf
  Hf28     1.0000 0.86192  0.47719  0.83047  Biso   1.000  Hf
  Hf29     1.0000 0.85863  0.97506  0.33560  Biso   1.000  Hf
  Hf30     1.0000 0.86451  0.98032  0.82942  Biso   1.000  Hf
  O1       1.0000 0.03240  0.16173  0.58532  Biso   1.000  O 
  O2       1.0000 0.02626  0.64632  0.06955  Biso   1.000  O 
  O3       1.0000 0.02553  0.65391  0.57314  Biso   1.000  O 
  O4       1.0000 0.02037  0.09063  0.34510  Biso   1.000  O 
  O5       1.0000 0.02953  0.09317  0.83316  Biso   1.000  O 
  O6       1.0000 0.02984  0.59179  0.32212  Biso   1.000  O 
  O7       1.0000 0.02752  0.59210  0.82411  Biso   1.000  O 
  O8       1.0000 0.46726  0.43022  0.07839  Biso   1.000  O 
  O9       1.0000 0.46849  0.41829  0.58293  Biso   1.000  O 
  O10      1.0000 0.46193  0.93365  0.08955  Biso   1.000  O 
  O11      1.0000 0.46676  0.91528  0.58324  Biso   1.000  O 
  O12      1.0000 0.47064  0.33752  0.34496  Biso   1.000  O 
  O13      1.0000 0.46571  0.33758  0.83068  Biso   1.000  O 
  O14      1.0000 0.46876  0.83735  0.33291  Biso   1.000  O 
  O15      1.0000 0.47008  0.84225  0.83094  Biso   1.000  O 
  O16      1.0000 0.26872  0.11529  0.30219  Biso   1.000  O 
  O17      1.0000 0.27626  0.12580  0.78206  Biso   1.000  O 
  O18      1.0000 0.27631  0.62040  0.29047  Biso   1.000  O 
  O19      1.0000 0.27282  0.62683  0.79249  Biso   1.000  O 
  O20      1.0000 0.23718  0.12575  0.01473  Biso   1.000  O 
  O21      1.0000 0.27556  0.12754  0.54327  Biso   1.000  O 
  O22      1.0000 0.27358  0.62388  0.04499  Biso   1.000  O 
  O23      1.0000 0.27286  0.63009  0.54210  Biso   1.000  O 
  O24      1.0000 0.22022  0.37430  0.29706  Biso   1.000  O 
  O25      1.0000 0.23041  0.37964  0.78405  Biso   1.000  O 
  O26      1.0000 0.22684  0.86479  0.29747  Biso   1.000  O 
  O27      1.0000 0.22400  0.87561  0.79432  Biso   1.000  O 
  O28      1.0000 0.21452  0.38141  0.02777  Biso   1.000  O 
  O29      1.0000 0.22466  0.37861  0.54299  Biso   1.000  O 
  O30      1.0000 0.24034  0.86281  0.03630  Biso   1.000  O 
  O31      1.0000 0.22330  0.87708  0.54574  Biso   1.000  O 
  O32      1.0000 0.59566  0.17072  0.17417  Biso   1.000  O 
  O33      1.0000 0.53366  0.16487  0.66687  Biso   1.000  O 
  O34      1.0000 0.53488  0.67335  0.16403  Biso   1.000  O 
  O35      1.0000 0.53157  0.66744  0.66709  Biso   1.000  O 
  O36      1.0000 0.52934  0.08720  0.41854  Biso   1.000  O 
  O37      1.0000 0.52278  0.09853  0.92730  Biso   1.000  O 
  O38      1.0000 0.53164  0.58752  0.41676  Biso   1.000  O 
  O39      1.0000 0.53121  0.59385  0.91542  Biso   1.000  O 
  O40      1.0000 0.97106  0.39375  0.17519  Biso   1.000  O 
  O41      1.0000 0.97467  0.40283  0.68240  Biso   1.000  O 
  O42      1.0000 0.96223  0.85845  0.21011  Biso   1.000  O 
  O43      1.0000 0.97310  0.90184  0.68472  Biso   1.000  O 
  O44      1.0000 0.97036  0.34371  0.42903  Biso   1.000  O 
  O45      1.0000 0.96188  0.32871  0.93389  Biso   1.000  O 
  O46      1.0000 0.97193  0.84930  0.44110  Biso   1.000  O 
  O47      1.0000 0.97971  0.85767  0.94636  Biso   1.000  O 
  O48      1.0000 0.77072  0.12675  0.94663  Biso   1.000  O 
  O49      1.0000 0.77234  0.12601  0.45518  Biso   1.000  O 
  O50      1.0000 0.77481  0.62243  0.95240  Biso   1.000  O 
  O51      1.0000 0.77580  0.62643  0.45487  Biso   1.000  O 
  O52      1.0000 0.84427  0.10281  0.17255  Biso   1.000  O 
  O53      1.0000 0.77593  0.12396  0.70288  Biso   1.000  O 
  O54      1.0000 0.77344  0.62423  0.20526  Biso   1.000  O 
  O55      1.0000 0.77502  0.62342  0.70610  Biso   1.000  O 
  O56      1.0000 0.71608  0.37619  0.95636  Biso   1.000  O 
  O57      1.0000 0.72949  0.37913  0.46157  Biso   1.000  O 
  O58      1.0000 0.72970  0.87109  0.95263  Biso   1.000  O 
  O59      1.0000 0.72311  0.87268  0.45729  Biso   1.000  O 
  O60      1.0000 0.72501  0.37962  0.21273  Biso   1.000  O 
  O61      1.0000 0.72666  0.37657  0.70791  Biso   1.000  O 
  O62      1.0000 0.71660  0.88058  0.20618  Biso   1.000  O 
  O63      1.0000 0.72546  0.87703  0.70508  Biso   1.000  O 
