data_image0
_cell_length_a       10.0618
_cell_length_b       10.2677
_cell_length_c       10.4549
_cell_angle_alpha    90.147
_cell_angle_beta     90.1349
_cell_angle_gamma    90.1349

_symmetry_space_group_name_H-M    "P 1"
_symmetry_int_tables_number       1

loop_
  _symmetry_equiv_pos_as_xyz
  'x, y, z'

loop_
  _atom_site_label
  _atom_site_occupancy
  _atom_site_fract_x
  _atom_site_fract_y
  _atom_site_fract_z
  _atom_site_thermal_displace_type
  _atom_site_B_iso_or_equiv
  _atom_site_type_symbol
  La1      1.0000 0.13711  0.00687  0.15695  Biso   1.000  La
  Hf1      1.0000 0.13802  0.02156  0.67152  Biso   1.000  Hf
  Hf2      1.0000 0.13818  0.52194  0.17099  Biso   1.000  Hf
  Hf3      1.0000 0.13992  0.51950  0.66858  Biso   1.000  Hf
  Hf4      1.0000 0.13872  0.22529  0.41911  Biso   1.000  Hf
  Hf5      1.0000 0.13804  0.23460  0.91800  Biso   1.000  Hf
  Hf6      1.0000 0.13910  0.72738  0.42300  Biso   1.000  Hf
  Hf7      1.0000 0.13639  0.72447  0.91770  Biso   1.000  Hf
  Hf8      1.0000 0.35905  0.26979  0.17007  Biso   1.000  Hf
  Hf9      1.0000 0.36167  0.27070  0.66923  Biso   1.000  Hf
  Hf10     1.0000 0.37128  0.76264  0.17700  Biso   1.000  Hf
  Hf11     1.0000 0.36161  0.77024  0.67192  Biso   1.000  Hf
  Hf12     1.0000 0.36135  0.47646  0.42006  Biso   1.000  Hf
  Hf13     1.0000 0.36304  0.47932  0.92058  Biso   1.000  Hf
  Hf14     1.0000 0.36195  0.97819  0.42190  Biso   1.000  Hf
  Hf15     1.0000 0.36871  0.98528  0.91161  Biso   1.000  Hf
  Hf16     1.0000 0.63668  0.01981  0.08193  Biso   1.000  Hf
  Hf17     1.0000 0.63845  0.02103  0.58059  Biso   1.000  Hf
  Hf18     1.0000 0.63998  0.51739  0.07821  Biso   1.000  Hf
  Hf19     1.0000 0.63855  0.52036  0.57700  Biso   1.000  Hf
  Hf20     1.0000 0.63732  0.22895  0.32892  Biso   1.000  Hf
  Hf21     1.0000 0.64041  0.23012  0.82776  Biso   1.000  Hf
  Hf22     1.0000 0.64204  0.72795  0.33221  Biso   1.000  Hf
  Hf23     1.0000 0.63902  0.72822  0.82726  Biso   1.000  Hf
  Hf24     1.0000 0.86123  0.27214  0.07759  Biso   1.000  Hf
  Hf25     1.0000 0.86262  0.27108  0.57786  Biso   1.000  Hf
  Hf26     1.0000 0.85565  0.76811  0.07949  Biso   1.000  Hf
  Hf27     1.0000 0.86317  0.77120  0.58011  Biso   1.000  Hf
  Hf28     1.0000 0.86249  0.47834  0.32906  Biso   1.000  Hf
  Hf29     1.0000 0.85950  0.47894  0.82629  Biso   1.000  Hf
  Hf30     1.0000 0.85711  0.98000  0.33329  Biso   1.000  Hf
  Hf31     1.0000 0.86153  0.97982  0.83146  Biso   1.000  Hf
  O1       1.0000 0.03602  0.18672  0.08276  Biso   1.000  O 
  O2       1.0000 0.03497  0.16871  0.58856  Biso   1.000  O 
  O3       1.0000 0.03788  0.67517  0.08750  Biso   1.000  O 
  O4       1.0000 0.03514  0.66777  0.58781  Biso   1.000  O 
  O5       1.0000 0.02656  0.08273  0.34396  Biso   1.000  O 
  O6       1.0000 0.03575  0.08243  0.83875  Biso   1.000  O 
  O7       1.0000 0.03503  0.58230  0.33629  Biso   1.000  O 
  O8       1.0000 0.03359  0.58259  0.83445  Biso   1.000  O 
  O9       1.0000 0.46636  0.41618  0.08355  Biso   1.000  O 
  O10      1.0000 0.46734  0.41526  0.58328  Biso   1.000  O 
  O11      1.0000 0.44999  0.91980  0.08419  Biso   1.000  O 
  O12      1.0000 0.46613  0.91714  0.58672  Biso   1.000  O 
  O13      1.0000 0.46694  0.33420  0.33241  Biso   1.000  O 
  O14      1.0000 0.46692  0.33334  0.83363  Biso   1.000  O 
  O15      1.0000 0.47132  0.83109  0.33867  Biso   1.000  O 
  O16      1.0000 0.46870  0.83341  0.83271  Biso   1.000  O 
  O17      1.0000 0.28266  0.12601  0.29907  Biso   1.000  O 
  O18      1.0000 0.27597  0.12488  0.78910  Biso   1.000  O 
  O19      1.0000 0.27830  0.61767  0.29413  Biso   1.000  O 
  O20      1.0000 0.27619  0.62327  0.79321  Biso   1.000  O 
  O21      1.0000 0.28647  0.13597  0.02986  Biso   1.000  O 
  O22      1.0000 0.27573  0.12474  0.54417  Biso   1.000  O 
  O23      1.0000 0.27688  0.63340  0.04296  Biso   1.000  O 
  O24      1.0000 0.27688  0.62503  0.54404  Biso   1.000  O 
  O25      1.0000 0.22145  0.37185  0.29257  Biso   1.000  O 
  O26      1.0000 0.22520  0.37541  0.79252  Biso   1.000  O 
  O27      1.0000 0.23290  0.86088  0.29997  Biso   1.000  O 
  O28      1.0000 0.22400  0.87421  0.80195  Biso   1.000  O 
  O29      1.0000 0.22288  0.38300  0.04266  Biso   1.000  O 
  O30      1.0000 0.22410  0.37529  0.54336  Biso   1.000  O 
  O31      1.0000 0.22350  0.87563  0.54870  Biso   1.000  O 
  O32      1.0000 0.53222  0.16568  0.16453  Biso   1.000  O 
  O33      1.0000 0.53408  0.16688  0.66550  Biso   1.000  O 
  O34      1.0000 0.53755  0.66225  0.16782  Biso   1.000  O 
  O35      1.0000 0.53293  0.66559  0.66487  Biso   1.000  O 
  O36      1.0000 0.53441  0.08188  0.41591  Biso   1.000  O 
  O37      1.0000 0.54037  0.08048  0.91179  Biso   1.000  O 
  O38      1.0000 0.53388  0.58209  0.41563  Biso   1.000  O 
  O39      1.0000 0.53385  0.58448  0.91659  Biso   1.000  O 
  O40      1.0000 0.96288  0.42457  0.16191  Biso   1.000  O 
  O41      1.0000 0.96570  0.41960  0.66265  Biso   1.000  O 
  O42      1.0000 0.93863  0.91626  0.16839  Biso   1.000  O 
  O43      1.0000 0.96653  0.91631  0.66907  Biso   1.000  O 
  O44      1.0000 0.96633  0.33265  0.41443  Biso   1.000  O 
  O45      1.0000 0.96263  0.33440  0.90938  Biso   1.000  O 
  O46      1.0000 0.96681  0.83245  0.41685  Biso   1.000  O 
  O47      1.0000 0.97096  0.83859  0.92205  Biso   1.000  O 
  O48      1.0000 0.77638  0.12318  0.95811  Biso   1.000  O 
  O49      1.0000 0.77303  0.12560  0.45820  Biso   1.000  O 
  O50      1.0000 0.77630  0.62190  0.95354  Biso   1.000  O 
  O51      1.0000 0.77809  0.62319  0.45601  Biso   1.000  O 
  O52      1.0000 0.77353  0.12618  0.20675  Biso   1.000  O 
  O53      1.0000 0.77765  0.12643  0.70727  Biso   1.000  O 
  O54      1.0000 0.77745  0.62604  0.20585  Biso   1.000  O 
  O55      1.0000 0.77572  0.62657  0.70421  Biso   1.000  O 
  O56      1.0000 0.72251  0.37415  0.95359  Biso   1.000  O 
  O57      1.0000 0.72398  0.37422  0.45445  Biso   1.000  O 
  O58      1.0000 0.72285  0.87223  0.95622  Biso   1.000  O 
  O59      1.0000 0.72468  0.87318  0.45889  Biso   1.000  O 
  O60      1.0000 0.72353  0.37580  0.20524  Biso   1.000  O 
  O61      1.0000 0.72402  0.37569  0.70381  Biso   1.000  O 
  O62      1.0000 0.70706  0.87514  0.20701  Biso   1.000  O 
  O63      1.0000 0.72485  0.87640  0.70708  Biso   1.000  O 
