data_image0
_cell_length_a       5.04172
_cell_length_b       10.2194
_cell_length_c       10.083
_cell_angle_alpha    89.9999
_cell_angle_beta     88.4528
_cell_angle_gamma    90.0005

_symmetry_space_group_name_H-M    "P 1"
_symmetry_int_tables_number       1

loop_
  _symmetry_equiv_pos_as_xyz
  'x, y, z'

loop_
  _atom_site_label
  _atom_site_occupancy
  _atom_site_fract_x
  _atom_site_fract_y
  _atom_site_fract_z
  _atom_site_thermal_displace_type
  _atom_site_B_iso_or_equiv
  _atom_site_type_symbol
  Ag1      1.0000 0.25088  0.97814  0.12545  Biso   1.000  Ag
  Zr1      1.0000 0.26463  0.25164  0.37100  Biso   1.000  Zr
  Zr2      1.0000 0.75089  0.25435  0.12546  Biso   1.000  Zr
  Zr3      1.0000 0.77231  0.00596  0.37402  Biso   1.000  Zr
  O1       1.0000 0.94131  0.15451  0.97894  Biso   1.000  O
  O2       1.0000 0.04375  0.10480  0.23825  Biso   1.000  O
  O3       1.0000 0.00624  0.35481  0.25223  Biso   1.000  O
  O4       1.0000 0.99790  0.39920  0.00323  Biso   1.000  O
  O5       1.0000 0.56047  0.15452  0.27197  Biso   1.000  O
  O6       1.0000 0.45803  0.10480  0.01266  Biso   1.000  O
  O7       1.0000 0.49554  0.35482  0.99868  Biso   1.000  O
  O8       1.0000 0.50387  0.39921  0.24768  Biso   1.000  O
  Zr4      1.0000 0.25088  0.99960  0.62546  Biso   1.000  Zr
  Zr5      1.0000 0.23714  0.25164  0.87991  Biso   1.000  Zr
  Zr6      1.0000 0.75089  0.24803  0.62546  Biso   1.000  Zr
  Zr7      1.0000 0.72944  0.00596  0.87690  Biso   1.000  Zr
  O9       1.0000 0.01285  0.14712  0.49333  Biso   1.000  O
  O10      1.0000 0.98150  0.10219  0.73980  Biso   1.000  O
  O11      1.0000 0.00147  0.35394  0.75095  Biso   1.000  O
  O12      1.0000 0.99756  0.39619  0.50299  Biso   1.000  O
  O13      1.0000 0.48892  0.14713  0.75758  Biso   1.000  O
  O14      1.0000 0.52028  0.10220  0.51111  Biso   1.000  O
  O15      1.0000 0.50031  0.35394  0.49996  Biso   1.000  O
  O16      1.0000 0.50423  0.39619  0.74792  Biso   1.000  O
  Zr8      1.0000 0.25089  0.50513  0.12545  Biso   1.000  Zr
  Zr9      1.0000 0.26692  0.75175  0.38176  Biso   1.000  Zr
  Zr10     1.0000 0.75089  0.74685  0.12545  Biso   1.000  Zr
  Zr11     1.0000 0.75333  0.49663  0.37657  Biso   1.000  Zr
  O17      1.0000 0.01743  0.64379  0.00264  Biso   1.000  O
  O18      1.0000 0.98322  0.60757  0.24883  Biso   1.000  O
  O19      1.0000 0.03503  0.85405  0.24249  Biso   1.000  O
  O20      1.0000 0.95666  0.88903  0.99283  Biso   1.000  O
  O21      1.0000 0.48432  0.64380  0.24824  Biso   1.000  O
  O22      1.0000 0.51852  0.60757  0.00206  Biso   1.000  O
  O23      1.0000 0.46674  0.85406  0.00840  Biso   1.000  O
  O24      1.0000 0.54512  0.88904  0.25806  Biso   1.000  O
  Zr12     1.0000 0.25090  0.49787  0.62545  Biso   1.000  Zr
  Zr13     1.0000 0.23486  0.75174  0.86914  Biso   1.000  Zr
  Zr14     1.0000 0.75089  0.74870  0.62545  Biso   1.000  Zr
  Zr15     1.0000 0.74847  0.49663  0.87434  Biso   1.000  Zr
  O25      1.0000 0.00573  0.64443  0.50111  Biso   1.000  O
  O26      1.0000 0.99807  0.60525  0.75119  Biso   1.000  O
  O27      1.0000 0.99301  0.85436  0.74636  Biso   1.000  O
  O28      1.0000 0.01300  0.89525  0.49653  Biso   1.000  O
  O29      1.0000 0.49603  0.64444  0.74978  Biso   1.000  O
  O30      1.0000 0.50369  0.60526  0.49970  Biso   1.000  O
  O31      1.0000 0.50879  0.85436  0.50452  Biso   1.000  O
  O32      1.0000 0.48881  0.89525  0.75436  Biso   1.000  O
