data_image0
_cell_length_a       10.0564
_cell_length_b       5.38366
_cell_length_c       10.0803
_cell_angle_alpha    87.5105
_cell_angle_beta     87.4971
_cell_angle_gamma    88.3697

_symmetry_space_group_name_H-M    "P 1"
_symmetry_int_tables_number       1

loop_
  _symmetry_equiv_pos_as_xyz
  'x, y, z'

loop_
  _atom_site_label
  _atom_site_occupancy
  _atom_site_fract_x
  _atom_site_fract_y
  _atom_site_fract_z
  _atom_site_thermal_displace_type
  _atom_site_B_iso_or_equiv
  _atom_site_type_symbol
  Zr1      1.0000 0.11429  0.82765  0.11054  Biso   1.000  Zr
  Zr2      1.0000 0.14133  0.49116  0.40283  Biso   1.000  Zr
  Zr3      1.0000 0.40508  0.50522  0.15728  Biso   1.000  Zr
  Zr4      1.0000 0.36149  0.99943  0.37086  Biso   1.000  Zr
  O1       1.0000 0.98865  0.30087  0.00096  Biso   1.000  O
  O2       1.0000 0.02639  0.06628  0.23376  Biso   1.000  O
  O3       1.0000 0.02349  0.53797  0.22163  Biso   1.000  O
  O4       1.0000 0.98112  0.77193  0.96889  Biso   1.000  O
  O5       1.0000 0.25298  0.28105  0.25479  Biso   1.000  O
  O6       1.0000 0.22132  0.08334  0.01136  Biso   1.000  O
  O7       1.0000 0.22162  0.53616  0.03009  Biso   1.000  O
  O8       1.0000 0.25572  0.75769  0.26010  Biso   1.000  O
  Zr5      1.0000 0.11376  0.97510  0.61277  Biso   1.000  Zr
  Zr6      1.0000 0.11278  0.47695  0.85053  Biso   1.000  Zr
  Zr7      1.0000 0.39983  0.57484  0.64647  Biso   1.000  Zr
  Zr8      1.0000 0.37861  0.03526  0.86931  Biso   1.000  Zr
  O9       1.0000 0.99518  0.27846  0.49886  Biso   1.000  O
  O10      1.0000 0.02825  0.17055  0.76259  Biso   1.000  O
  O11      1.0000 0.02128  0.65892  0.70569  Biso   1.000  O
  O12      1.0000 0.00358  0.78387  0.46951  Biso   1.000  O
  O13      1.0000 0.27885  0.33558  0.76695  Biso   1.000  O
  O14      1.0000 0.24546  0.20407  0.50501  Biso   1.000  O
  O15      1.0000 0.25364  0.70832  0.51273  Biso   1.000  O
  O16      1.0000 0.25220  0.82492  0.76195  Biso   1.000  O
  Zr9      1.0000 0.60757  0.96684  0.11972  Biso   1.000  Zr
  Zr10     1.0000 0.64523  0.50948  0.35705  Biso   1.000  Zr
  Zr11     1.0000 0.83784  0.53257  0.09619  Biso   1.000  Zr
  Zr12     1.0000 0.86873  0.03157  0.37494  Biso   1.000  Zr
  O17      1.0000 0.47594  0.25435  0.01315  Biso   1.000  O
  O18      1.0000 0.51314  0.22411  0.27171  Biso   1.000  O
  O19      1.0000 0.50137  0.75232  0.27861  Biso   1.000  O
  O20      1.0000 0.46449  0.77481  0.01161  Biso   1.000  O
  O21      1.0000 0.78472  0.30356  0.25506  Biso   1.000  O
  O22      1.0000 0.73443  0.23887  0.00826  Biso   1.000  O
  O23      1.0000 0.72969  0.77717  0.96541  Biso   1.000  O
  O24      1.0000 0.76865  0.81049  0.23044  Biso   1.000  O
  Zr13     1.0000 0.62006  0.06221  0.62021  Biso   1.000  Zr
  Zr14     1.0000 0.60325  0.50387  0.90476  Biso   1.000  Zr
  Zr15     1.0000 0.85791  0.55314  0.60725  Biso   1.000  Zr
  Zr16     1.0000 0.85929  0.05448  0.87121  Biso   1.000  Zr
  O25      1.0000 0.51684  0.39614  0.51571  Biso   1.000  O
  O26      1.0000 0.51883  0.26381  0.76414  Biso   1.000  O
  O27      1.0000 0.51967  0.76957  0.76499  Biso   1.000  O
  O28      1.0000 0.47571  0.90130  0.52957  Biso   1.000  O
  O29      1.0000 0.76880  0.38669  0.76871  Biso   1.000  O
  O30      1.0000 0.75394  0.26575  0.50092  Biso   1.000  O
  O31      1.0000 0.73764  0.76639  0.48085  Biso   1.000  O
  O32      1.0000 0.78904  0.89928  0.70758  Biso   1.000  O
  Al1      1.0000 0.12136  0.30387  0.12977  Biso   1.000  Al
