data_image0
_cell_length_a       10.1814
_cell_length_b       10.299
_cell_length_c       5.26282
_cell_angle_alpha    90.0109
_cell_angle_beta     80.6964
_cell_angle_gamma    89.5143

_symmetry_space_group_name_H-M    "P 1"
_symmetry_int_tables_number       1

loop_
  _symmetry_equiv_pos_as_xyz
  'x, y, z'

loop_
  _atom_site_label
  _atom_site_occupancy
  _atom_site_fract_x
  _atom_site_fract_y
  _atom_site_fract_z
  _atom_site_thermal_displace_type
  _atom_site_B_iso_or_equiv
  _atom_site_type_symbol
  As1      1.0000 0.11278  0.01887  0.32133  Biso   1.000  As
  Zr1      1.0000 0.14039  0.52236  0.29155  Biso   1.000  Zr
  Zr2      1.0000 0.63692  0.02192  0.29391  Biso   1.000  Zr
  Zr3      1.0000 0.63699  0.52065  0.29116  Biso   1.000  Zr
  Zr4      1.0000 0.14619  0.22749  0.78496  Biso   1.000  Zr
  Zr5      1.0000 0.13914  0.73150  0.79063  Biso   1.000  Zr
  Zr6      1.0000 0.63854  0.22961  0.79173  Biso   1.000  Zr
  Zr7      1.0000 0.63624  0.72788  0.79287  Biso   1.000  Zr
  Zr8      1.0000 0.35927  0.26924  0.20535  Biso   1.000  Zr
  Zr9      1.0000 0.35810  0.77688  0.20689  Biso   1.000  Zr
  Zr10     1.0000 0.86329  0.26929  0.21346  Biso   1.000  Zr
  Zr11     1.0000 0.85978  0.76749  0.20905  Biso   1.000  Zr
  Zr12     1.0000 0.36163  0.48003  0.70815  Biso   1.000  Zr
  Zr13     1.0000 0.35795  0.98193  0.70639  Biso   1.000  Zr
  Zr14     1.0000 0.86436  0.47637  0.71211  Biso   1.000  Zr
  Zr15     1.0000 0.85453  0.97741  0.71850  Biso   1.000  Zr
  O1       1.0000 0.04018  0.15137  0.14892  Biso   1.000  O
  O2       1.0000 0.03397  0.66736  0.15896  Biso   1.000  O
  O3       1.0000 0.53620  0.16875  0.15770  Biso   1.000  O
  O4       1.0000 0.53356  0.66754  0.15588  Biso   1.000  O
  O5       1.0000 0.03370  0.08199  0.63874  Biso   1.000  O
  O6       1.0000 0.03513  0.58246  0.65868  Biso   1.000  O
  O7       1.0000 0.53742  0.08235  0.65787  Biso   1.000  O
  O8       1.0000 0.53442  0.58358  0.65504  Biso   1.000  O
  O9       1.0000 0.46553  0.41664  0.34333  Biso   1.000  O
  O10      1.0000 0.46554  0.91761  0.34468  Biso   1.000  O
  O11      1.0000 0.97014  0.41109  0.34977  Biso   1.000  O
  O12      1.0000 0.96480  0.91921  0.34523  Biso   1.000  O
  O13      1.0000 0.46928  0.33779  0.84532  Biso   1.000  O
  O14      1.0000 0.46560  0.83522  0.84378  Biso   1.000  O
  O15      1.0000 0.96848  0.32947  0.85350  Biso   1.000  O
  O16      1.0000 0.96321  0.83360  0.84599  Biso   1.000  O
  O17      1.0000 0.27056  0.12742  0.46890  Biso   1.000  O
  O18      1.0000 0.27544  0.63085  0.47958  Biso   1.000  O
  O19      1.0000 0.77728  0.12777  0.48181  Biso   1.000  O
  O20      1.0000 0.77600  0.62670  0.48153  Biso   1.000  O
  O21      1.0000 0.29019  0.13395  0.94863  Biso   1.000  O
  O22      1.0000 0.27549  0.62328  0.98058  Biso   1.000  O
  O23      1.0000 0.77691  0.12051  0.98346  Biso   1.000  O
  O24      1.0000 0.77637  0.62078  0.98221  Biso   1.000  O
  O25      1.0000 0.22360  0.38061  0.01669  Biso   1.000  O
  O26      1.0000 0.22385  0.88330  0.01071  Biso   1.000  O
  O27      1.0000 0.72793  0.37741  0.02324  Biso   1.000  O
  O28      1.0000 0.72200  0.87785  0.02346  Biso   1.000  O
  O29      1.0000 0.22624  0.37163  0.51809  Biso   1.000  O
  O30      1.0000 0.22003  0.87234  0.51767  Biso   1.000  O
  O31      1.0000 0.72725  0.37054  0.52105  Biso   1.000  O
  O32      1.0000 0.72759  0.87012  0.52098  Biso   1.000  O
