data_image0
_cell_length_a       5.10259
_cell_length_b       10.5054
_cell_length_c       10.308
_cell_angle_alpha    92.0887
_cell_angle_beta     90.9669
_cell_angle_gamma    90.6004

_symmetry_space_group_name_H-M    "P 1"
_symmetry_int_tables_number       1

loop_
  _symmetry_equiv_pos_as_xyz
  'x, y, z'

loop_
  _atom_site_label
  _atom_site_occupancy
  _atom_site_fract_x
  _atom_site_fract_y
  _atom_site_fract_z
  _atom_site_thermal_displace_type
  _atom_site_B_iso_or_equiv
  _atom_site_type_symbol
  Zr1      1.0000 0.32091  0.95134  0.14143  Biso   1.000  Zr
  Zr2      1.0000 0.20062  0.24532  0.37640  Biso   1.000  Zr
  Zr3      1.0000 0.63254  0.23656  0.13755  Biso   1.000  Zr
  Zr4      1.0000 0.74187  0.00950  0.40244  Biso   1.000  Zr
  O1       1.0000 0.94155  0.19774  0.95719  Biso   1.000  O
  O2       1.0000 0.04129  0.06090  0.28235  Biso   1.000  O
  O3       1.0000 0.86049  0.31468  0.29046  Biso   1.000  O
  O4       1.0000 0.01624  0.42933  0.96705  Biso   1.000  O
  O5       1.0000 0.50122  0.12152  0.27965  Biso   1.000  O
  O6       1.0000 0.59906  0.06022  0.03974  Biso   1.000  O
  O7       1.0000 0.45929  0.34131  0.00118  Biso   1.000  O
  O8       1.0000 0.40877  0.38700  0.25245  Biso   1.000  O
  Zr5      1.0000 0.25201  0.00694  0.63709  Biso   1.000  Zr
  Zr6      1.0000 0.22385  0.28765  0.84585  Biso   1.000  Zr
  Zr7      1.0000 0.71889  0.26166  0.62326  Biso   1.000  Zr
  Zr8      1.0000 0.78927  0.01914  0.87197  Biso   1.000  Zr
  O9       1.0000 0.96816  0.15413  0.50846  Biso   1.000  O
  O10      1.0000 0.01556  0.12502  0.74233  Biso   1.000  O
  O11      1.0000 0.97860  0.38302  0.72764  Biso   1.000  O
  O12      1.0000 0.99265  0.40385  0.49267  Biso   1.000  O
  O13      1.0000 0.51740  0.17431  0.76534  Biso   1.000  O
  O14      1.0000 0.48006  0.11143  0.51965  Biso   1.000  O
  O15      1.0000 0.47740  0.35719  0.49905  Biso   1.000  O
  O16      1.0000 0.48252  0.42458  0.74728  Biso   1.000  O
  Zr9      1.0000 0.26285  0.50139  0.10416  Biso   1.000  Zr
  Zr10     1.0000 0.29695  0.75246  0.38785  Biso   1.000  Zr
  Zr11     1.0000 0.76417  0.71997  0.13819  Biso   1.000  Zr
  Zr12     1.0000 0.72171  0.48466  0.36161  Biso   1.000  Zr
  O17      1.0000 0.02628  0.66895  0.98863  Biso   1.000  O
  O18      1.0000 0.94973  0.55653  0.21978  Biso   1.000  O
  O19      1.0000 0.09056  0.80638  0.22957  Biso   1.000  O
  O20      1.0000 0.06741  0.92532  0.98123  Biso   1.000  O
  O21      1.0000 0.48315  0.62864  0.25501  Biso   1.000  O
  O22      1.0000 0.55091  0.58378  0.00596  Biso   1.000  O
  O23      1.0000 0.51773  0.82067  0.02016  Biso   1.000  O
  O24      1.0000 0.58748  0.86817  0.27378  Biso   1.000  O
  Zr13     1.0000 0.24578  0.50613  0.60426  Biso   1.000  Zr
  Zr14     1.0000 0.25827  0.77480  0.86801  Biso   1.000  Zr
  Zr15     1.0000 0.79266  0.75017  0.61360  Biso   1.000  Zr
  Zr16     1.0000 0.78072  0.53267  0.85370  Biso   1.000  Zr
  O25      1.0000 0.01960  0.64648  0.48348  Biso   1.000  O
  O26      1.0000 0.04961  0.62842  0.73515  Biso   1.000  O
  O27      1.0000 0.98794  0.87376  0.74406  Biso   1.000  O
  O28      1.0000 0.02781  0.89479  0.49768  Biso   1.000  O
  O29      1.0000 0.56122  0.68305  0.76054  Biso   1.000  O
  O30      1.0000 0.52137  0.61116  0.50415  Biso   1.000  O
  O31      1.0000 0.52218  0.86480  0.52115  Biso   1.000  O
  O32      1.0000 0.47166  0.93079  0.77930  Biso   1.000  O
  As1      1.0000 0.10906  0.16623  0.11471  Biso   1.000  As
