data_image0
_cell_length_a       10.1731
_cell_length_b       10.3491
_cell_length_c       10.4988
_cell_angle_alpha    89.8593
_cell_angle_beta     80.8487
_cell_angle_gamma    89.811

_symmetry_space_group_name_H-M    "P 1"
_symmetry_int_tables_number       1

loop_
  _symmetry_equiv_pos_as_xyz
  'x, y, z'

loop_
  _atom_site_label
  _atom_site_occupancy
  _atom_site_fract_x
  _atom_site_fract_y
  _atom_site_fract_z
  _atom_site_thermal_displace_type
  _atom_site_B_iso_or_equiv
  _atom_site_type_symbol
  Au1      1.0000 0.12447  0.01465  0.16899  Biso   1.000  Au
  Zr1      1.0000 0.13828  0.23354  0.39615  Biso   1.000  Zr
  Zr2      1.0000 0.35984  0.26957  0.09997  Biso   1.000  Zr
  Zr3      1.0000 0.36135  0.47977  0.35305  Biso   1.000  Zr
  O1       1.0000 0.04355  0.16367  0.08546  Biso   1.000  O
  O2       1.0000 0.02450  0.08298  0.35457  Biso   1.000  O
  O3       1.0000 0.46378  0.41933  0.16885  Biso   1.000  O
  O4       1.0000 0.46340  0.33075  0.41885  Biso   1.000  O
  O5       1.0000 0.26866  0.12318  0.23310  Biso   1.000  O
  O6       1.0000 0.27642  0.12267  0.48489  Biso   1.000  O
  O7       1.0000 0.22455  0.38155  0.00830  Biso   1.000  O
  O8       1.0000 0.22578  0.36980  0.25817  Biso   1.000  O
  Zr4      1.0000 0.13778  0.02098  0.64168  Biso   1.000  Zr
  Zr5      1.0000 0.14357  0.22394  0.89428  Biso   1.000  Zr
  Zr6      1.0000 0.36094  0.27164  0.60390  Biso   1.000  Zr
  Zr7      1.0000 0.36165  0.47936  0.85435  Biso   1.000  Zr
  O9       1.0000 0.03808  0.17532  0.58390  Biso   1.000  O
  O10      1.0000 0.03758  0.07798  0.82962  Biso   1.000  O
  O11      1.0000 0.46451  0.41944  0.66928  Biso   1.000  O
  O12      1.0000 0.46960  0.33598  0.92055  Biso   1.000  O
  O13      1.0000 0.27502  0.12714  0.73352  Biso   1.000  O
  O14      1.0000 0.29291  0.13422  0.97305  Biso   1.000  O
  O15      1.0000 0.22352  0.38035  0.50869  Biso   1.000  O
  O16      1.0000 0.22581  0.36954  0.75924  Biso   1.000  O
  Zr8      1.0000 0.13945  0.52198  0.14434  Biso   1.000  Zr
  Zr9      1.0000 0.13569  0.72699  0.39609  Biso   1.000  Zr
  Zr10     1.0000 0.36126  0.77337  0.10001  Biso   1.000  Zr
  Zr11     1.0000 0.36133  0.97872  0.35277  Biso   1.000  Zr
  O17      1.0000 0.03760  0.67252  0.08165  Biso   1.000  O
  O18      1.0000 0.03634  0.57849  0.33063  Biso   1.000  O
  O19      1.0000 0.46320  0.91870  0.17050  Biso   1.000  O
  O20      1.0000 0.46313  0.82951  0.41766  Biso   1.000  O
  O21      1.0000 0.27571  0.63189  0.24034  Biso   1.000  O
  O22      1.0000 0.27534  0.62104  0.49043  Biso   1.000  O
  O23      1.0000 0.22907  0.88031  0.00232  Biso   1.000  O
  O24      1.0000 0.21620  0.87051  0.25545  Biso   1.000  O
  Zr12     1.0000 0.13952  0.52120  0.64674  Biso   1.000  Zr
  Zr13     1.0000 0.14072  0.73217  0.89436  Biso   1.000  Zr
  Zr14     1.0000 0.36105  0.77184  0.60366  Biso   1.000  Zr
  Zr15     1.0000 0.36094  0.98190  0.85329  Biso   1.000  Zr
  O25      1.0000 0.03552  0.66947  0.58131  Biso   1.000  O
  O26      1.0000 0.03845  0.57868  0.83276  Biso   1.000  O
  O27      1.0000 0.46448  0.92006  0.66784  Biso   1.000  O
  O28      1.0000 0.46668  0.83215  0.91795  Biso   1.000  O
  O29      1.0000 0.27652  0.62974  0.73992  Biso   1.000  O
  O30      1.0000 0.27669  0.62197  0.98978  Biso   1.000  O
  O31      1.0000 0.22392  0.87946  0.50561  Biso   1.000  O
  O32      1.0000 0.22367  0.87124  0.75540  Biso   1.000  O
  Zr16     1.0000 0.63859  0.02067  0.14473  Biso   1.000  Zr
  Zr17     1.0000 0.63750  0.22951  0.39598  Biso   1.000  Zr
  Zr18     1.0000 0.86463  0.26803  0.10755  Biso   1.000  Zr
  Zr19     1.0000 0.86013  0.47910  0.35478  Biso   1.000  Zr
  O33      1.0000 0.53658  0.16954  0.08047  Biso   1.000  O
  O34      1.0000 0.53417  0.08054  0.33025  Biso   1.000  O
  O35      1.0000 0.96539  0.41889  0.17050  Biso   1.000  O
  O36      1.0000 0.96354  0.33321  0.42252  Biso   1.000  O
  O37      1.0000 0.77433  0.12773  0.24305  Biso   1.000  O
  O38      1.0000 0.77363  0.12118  0.49337  Biso   1.000  O
  O39      1.0000 0.72759  0.37734  0.01123  Biso   1.000  O
  O40      1.0000 0.72545  0.36956  0.25967  Biso   1.000  O
  Zr20     1.0000 0.63796  0.02173  0.64716  Biso   1.000  Zr
  Zr21     1.0000 0.64041  0.22916  0.89638  Biso   1.000  Zr
  Zr22     1.0000 0.86090  0.27216  0.60672  Biso   1.000  Zr
  Zr23     1.0000 0.86495  0.47668  0.85706  Biso   1.000  Zr
  O41      1.0000 0.53497  0.17006  0.58017  Biso   1.000  O
  O42      1.0000 0.53897  0.08074  0.82982  Biso   1.000  O
  O43      1.0000 0.96517  0.41937  0.67262  Biso   1.000  O
  O44      1.0000 0.96718  0.32686  0.92538  Biso   1.000  O
  O45      1.0000 0.77773  0.12969  0.74153  Biso   1.000  O
  O46      1.0000 0.77743  0.12022  0.99220  Biso   1.000  O
  O47      1.0000 0.72319  0.37898  0.51000  Biso   1.000  O
  O48      1.0000 0.72577  0.37155  0.76077  Biso   1.000  O
  Zr24     1.0000 0.63775  0.51936  0.14413  Biso   1.000  Zr
  Zr25     1.0000 0.63776  0.72720  0.39458  Biso   1.000  Zr
  Zr26     1.0000 0.86060  0.76831  0.10275  Biso   1.000  Zr
  Zr27     1.0000 0.85331  0.97762  0.36045  Biso   1.000  Zr
  O49      1.0000 0.53628  0.66907  0.07862  Biso   1.000  O
  O50      1.0000 0.53639  0.57906  0.32966  Biso   1.000  O
  O51      1.0000 0.95552  0.92335  0.16930  Biso   1.000  O
  O52      1.0000 0.96088  0.82801  0.41878  Biso   1.000  O
  O53      1.0000 0.77548  0.62788  0.24005  Biso   1.000  O
  O54      1.0000 0.77567  0.62078  0.49083  Biso   1.000  O
  O55      1.0000 0.72373  0.87881  0.00915  Biso   1.000  O
  O56      1.0000 0.72399  0.86953  0.25889  Biso   1.000  O
  Zr28     1.0000 0.63875  0.52128  0.64607  Biso   1.000  Zr
  Zr29     1.0000 0.63950  0.72864  0.89448  Biso   1.000  Zr
  Zr30     1.0000 0.86023  0.77049  0.60581  Biso   1.000  Zr
  Zr31     1.0000 0.86248  0.97927  0.85491  Biso   1.000  Zr
  O57      1.0000 0.53563  0.66928  0.57910  Biso   1.000  O
  O58      1.0000 0.53566  0.58233  0.82852  Biso   1.000  O
  O59      1.0000 0.96284  0.92080  0.66736  Biso   1.000  O
  O60      1.0000 0.96286  0.82770  0.91797  Biso   1.000  O
  O61      1.0000 0.77712  0.62821  0.74122  Biso   1.000  O
  O62      1.0000 0.77713  0.61993  0.99073  Biso   1.000  O
  O63      1.0000 0.72119  0.87833  0.51023  Biso   1.000  O
  O64      1.0000 0.72505  0.87096  0.75925  Biso   1.000  O
