data_image0
_cell_length_a       10.2301
_cell_length_b       10.3025
_cell_length_c       10.526
_cell_angle_alpha    90.0968
_cell_angle_beta     80.1943
_cell_angle_gamma    90.0649

_symmetry_space_group_name_H-M    "P 1"
_symmetry_int_tables_number       1

loop_
  _symmetry_equiv_pos_as_xyz
  'x, y, z'

loop_
  _atom_site_label
  _atom_site_occupancy
  _atom_site_fract_x
  _atom_site_fract_y
  _atom_site_fract_z
  _atom_site_thermal_displace_type
  _atom_site_B_iso_or_equiv
  _atom_site_type_symbol
  B1       1.0000 0.02067  0.05940  0.17220  Biso   1.000  B
  Zr1      1.0000 0.13955  0.01957  0.64366  Biso   1.000  Zr
  Zr2      1.0000 0.14007  0.52091  0.14412  Biso   1.000  Zr
  Zr3      1.0000 0.14048  0.52109  0.64579  Biso   1.000  Zr
  Zr4      1.0000 0.64047  0.02222  0.14581  Biso   1.000  Zr
  Zr5      1.0000 0.63809  0.02021  0.64848  Biso   1.000  Zr
  Zr6      1.0000 0.63655  0.52273  0.14597  Biso   1.000  Zr
  Zr7      1.0000 0.64046  0.51976  0.64687  Biso   1.000  Zr
  Zr8      1.0000 0.14379  0.22649  0.39074  Biso   1.000  Zr
  Zr9      1.0000 0.14373  0.22426  0.89644  Biso   1.000  Zr
  Zr10     1.0000 0.14235  0.72822  0.39283  Biso   1.000  Zr
  Zr11     1.0000 0.14332  0.73251  0.89573  Biso   1.000  Zr
  Zr12     1.0000 0.63807  0.22875  0.39583  Biso   1.000  Zr
  Zr13     1.0000 0.63964  0.22904  0.89524  Biso   1.000  Zr
  Zr14     1.0000 0.63837  0.72701  0.39671  Biso   1.000  Zr
  Zr15     1.0000 0.64054  0.72908  0.89757  Biso   1.000  Zr
  Zr16     1.0000 0.35586  0.26316  0.10590  Biso   1.000  Zr
  Zr17     1.0000 0.36102  0.26978  0.60445  Biso   1.000  Zr
  Zr18     1.0000 0.35660  0.77632  0.10462  Biso   1.000  Zr
  Zr19     1.0000 0.36215  0.77155  0.60361  Biso   1.000  Zr
  Zr20     1.0000 0.85673  0.27538  0.10498  Biso   1.000  Zr
  Zr21     1.0000 0.86403  0.26994  0.60251  Biso   1.000  Zr
  Zr22     1.0000 0.86473  0.77172  0.10329  Biso   1.000  Zr
  Zr23     1.0000 0.86296  0.76909  0.60599  Biso   1.000  Zr
  Zr24     1.0000 0.35986  0.47696  0.35235  Biso   1.000  Zr
  Zr25     1.0000 0.36114  0.47724  0.85592  Biso   1.000  Zr
  Zr26     1.0000 0.35836  0.97883  0.35058  Biso   1.000  Zr
  Zr27     1.0000 0.35812  0.97898  0.85823  Biso   1.000  Zr
  Zr28     1.0000 0.86296  0.47830  0.35443  Biso   1.000  Zr
  Zr29     1.0000 0.86566  0.47742  0.85535  Biso   1.000  Zr
  Zr30     1.0000 0.85478  0.97608  0.36249  Biso   1.000  Zr
  Zr31     1.0000 0.86286  0.97902  0.85453  Biso   1.000  Zr
  O1       1.0000 0.03055  0.15358  0.08049  Biso   1.000  O
  O2       1.0000 0.02931  0.15324  0.56270  Biso   1.000  O
  O3       1.0000 0.03650  0.67238  0.08145  Biso   1.000  O
  O4       1.0000 0.03442  0.66398  0.57798  Biso   1.000  O
  O5       1.0000 0.53617  0.16618  0.07853  Biso   1.000  O
  O6       1.0000 0.53406  0.16538  0.57934  Biso   1.000  O
  O7       1.0000 0.53281  0.66535  0.07753  Biso   1.000  O
  O8       1.0000 0.53443  0.66353  0.57831  Biso   1.000  O
  O9       1.0000 0.02997  0.09123  0.29879  Biso   1.000  O
  O10      1.0000 0.03299  0.08724  0.82317  Biso   1.000  O
  O11      1.0000 0.03335  0.58466  0.32697  Biso   1.000  O
  O12      1.0000 0.03673  0.58139  0.82885  Biso   1.000  O
  O13      1.0000 0.53809  0.08098  0.32973  Biso   1.000  O
  O14      1.0000 0.53570  0.08442  0.82869  Biso   1.000  O
  O15      1.0000 0.53262  0.58349  0.32810  Biso   1.000  O
  O16      1.0000 0.53408  0.58553  0.82816  Biso   1.000  O
  O17      1.0000 0.46631  0.41276  0.17228  Biso   1.000  O
  O18      1.0000 0.46777  0.41463  0.67274  Biso   1.000  O
  O19      1.0000 0.47237  0.91415  0.17258  Biso   1.000  O
  O20      1.0000 0.46759  0.91339  0.67538  Biso   1.000  O
  O21      1.0000 0.96574  0.41574  0.17157  Biso   1.000  O
  O22      1.0000 0.97075  0.41006  0.67415  Biso   1.000  O
  O23      1.0000 0.96256  0.94024  0.16370  Biso   1.000  O
  O24      1.0000 0.96674  0.91348  0.67270  Biso   1.000  O
  O25      1.0000 0.46666  0.33370  0.42273  Biso   1.000  O
  O26      1.0000 0.46986  0.33726  0.92320  Biso   1.000  O
  O27      1.0000 0.46963  0.83489  0.42390  Biso   1.000  O
  O28      1.0000 0.47574  0.84132  0.92521  Biso   1.000  O
  O29      1.0000 0.96759  0.33302  0.42038  Biso   1.000  O
  O30      1.0000 0.96868  0.33228  0.92751  Biso   1.000  O
  O31      1.0000 0.96797  0.83693  0.42029  Biso   1.000  O
  O32      1.0000 0.96708  0.83279  0.92093  Biso   1.000  O
  O33      1.0000 0.28896  0.13669  0.25258  Biso   1.000  O
  O34      1.0000 0.27496  0.12638  0.73812  Biso   1.000  O
  O35      1.0000 0.27620  0.62361  0.23837  Biso   1.000  O
  O36      1.0000 0.27740  0.62804  0.73976  Biso   1.000  O
  O37      1.0000 0.77660  0.13086  0.24116  Biso   1.000  O
  O38      1.0000 0.77699  0.12801  0.73947  Biso   1.000  O
  O39      1.0000 0.77500  0.62932  0.24027  Biso   1.000  O
  O40      1.0000 0.77767  0.62694  0.74152  Biso   1.000  O
  O41      1.0000 0.27451  0.12048  0.49344  Biso   1.000  O
  O42      1.0000 0.28739  0.13186  0.97847  Biso   1.000  O
  O43      1.0000 0.27653  0.62010  0.48946  Biso   1.000  O
  O44      1.0000 0.27612  0.61838  0.99040  Biso   1.000  O
  O45      1.0000 0.77406  0.11942  0.49094  Biso   1.000  O
  O46      1.0000 0.77660  0.12298  0.98993  Biso   1.000  O
  O47      1.0000 0.77610  0.62024  0.49109  Biso   1.000  O
  O48      1.0000 0.77889  0.62341  0.99236  Biso   1.000  O
  O49      1.0000 0.22301  0.37699  0.00973  Biso   1.000  O
  O50      1.0000 0.22392  0.37577  0.50779  Biso   1.000  O
  O51      1.0000 0.23489  0.86987  0.99788  Biso   1.000  O
  O52      1.0000 0.22551  0.87728  0.50953  Biso   1.000  O
  O53      1.0000 0.72561  0.38053  0.00990  Biso   1.000  O
  O54      1.0000 0.72660  0.37667  0.51066  Biso   1.000  O
  O55      1.0000 0.72785  0.87911  0.01154  Biso   1.000  O
  O56      1.0000 0.72420  0.87578  0.51306  Biso   1.000  O
  O57      1.0000 0.22081  0.37275  0.25801  Biso   1.000  O
  O58      1.0000 0.22627  0.36867  0.75969  Biso   1.000  O
  O59      1.0000 0.23521  0.86176  0.26444  Biso   1.000  O
  O60      1.0000 0.22433  0.87179  0.75583  Biso   1.000  O
  O61      1.0000 0.72348  0.37264  0.26016  Biso   1.000  O
  O62      1.0000 0.72755  0.37142  0.76002  Biso   1.000  O
  O63      1.0000 0.73132  0.87122  0.26214  Biso   1.000  O
  O64      1.0000 0.72669  0.87080  0.76098  Biso   1.000  O
