data_image0
_cell_length_a       5.12891
_cell_length_b       10.2577
_cell_length_c       10.5486
_cell_angle_alpha    90.132
_cell_angle_beta     80.0042
_cell_angle_gamma    90.1783

_symmetry_space_group_name_H-M    "P 1"
_symmetry_int_tables_number       1

loop_
  _symmetry_equiv_pos_as_xyz
  'x, y, z'

loop_
  _atom_site_label
  _atom_site_occupancy
  _atom_site_fract_x
  _atom_site_fract_y
  _atom_site_fract_z
  _atom_site_thermal_displace_type
  _atom_site_B_iso_or_equiv
  _atom_site_type_symbol
  B1       1.0000 0.04947  0.05907  0.17214  Biso   1.000  B
  Zr1      1.0000 0.27669  0.01849  0.64665  Biso   1.000  Zr
  Zr2      1.0000 0.27493  0.52249  0.14461  Biso   1.000  Zr
  Zr3      1.0000 0.28294  0.51936  0.64699  Biso   1.000  Zr
  Zr4      1.0000 0.28630  0.22670  0.39199  Biso   1.000  Zr
  Zr5      1.0000 0.28629  0.22492  0.89624  Biso   1.000  Zr
  Zr6      1.0000 0.28357  0.72655  0.39449  Biso   1.000  Zr
  Zr7      1.0000 0.28797  0.73156  0.89740  Biso   1.000  Zr
  Zr8      1.0000 0.70353  0.26767  0.10650  Biso   1.000  Zr
  Zr9      1.0000 0.72825  0.26864  0.60263  Biso   1.000  Zr
  Zr10     1.0000 0.72244  0.77723  0.10396  Biso   1.000  Zr
  Zr11     1.0000 0.72786  0.76915  0.60465  Biso   1.000  Zr
  Zr12     1.0000 0.72345  0.47666  0.35212  Biso   1.000  Zr
  Zr13     1.0000 0.72954  0.47624  0.85661  Biso   1.000  Zr
  Zr14     1.0000 0.70946  0.97669  0.35976  Biso   1.000  Zr
  Zr15     1.0000 0.71965  0.97948  0.85692  Biso   1.000  Zr
  O1       1.0000 0.06585  0.15281  0.07996  Biso   1.000  O
  O2       1.0000 0.05695  0.15046  0.56283  Biso   1.000  O
  O3       1.0000 0.06771  0.66916  0.07877  Biso   1.000  O
  O4       1.0000 0.06761  0.65910  0.57606  Biso   1.000  O
  O5       1.0000 0.07259  0.09161  0.29787  Biso   1.000  O
  O6       1.0000 0.06721  0.08915  0.82257  Biso   1.000  O
  O7       1.0000 0.06149  0.58697  0.32522  Biso   1.000  O
  O8       1.0000 0.07039  0.58492  0.82699  Biso   1.000  O
  O9       1.0000 0.93311  0.41003  0.17386  Biso   1.000  O
  O10      1.0000 0.94601  0.40613  0.67704  Biso   1.000  O
  O11      1.0000 0.94014  0.93814  0.16532  Biso   1.000  O
  O12      1.0000 0.93814  0.90851  0.67752  Biso   1.000  O
  O13      1.0000 0.93966  0.33553  0.42340  Biso   1.000  O
  O14      1.0000 0.94349  0.33649  0.93055  Biso   1.000  O
  O15      1.0000 0.94638  0.84039  0.42409  Biso   1.000  O
  O16      1.0000 0.95334  0.84224  0.92545  Biso   1.000  O
  O17      1.0000 0.58267  0.13792  0.25355  Biso   1.000  O
  O18      1.0000 0.55224  0.12557  0.73734  Biso   1.000  O
  O19      1.0000 0.55007  0.62411  0.23821  Biso   1.000  O
  O20      1.0000 0.55753  0.62581  0.74066  Biso   1.000  O
  O21      1.0000 0.54542  0.11886  0.49378  Biso   1.000  O
  O22      1.0000 0.57502  0.13286  0.97817  Biso   1.000  O
  O23      1.0000 0.55340  0.61921  0.48994  Biso   1.000  O
  O24      1.0000 0.55723  0.62063  0.99186  Biso   1.000  O
  O25      1.0000 0.44762  0.37876  0.01015  Biso   1.000  O
  O26      1.0000 0.45291  0.37383  0.50888  Biso   1.000  O
  O27      1.0000 0.47601  0.87082  0.99977  Biso   1.000  O
  O28      1.0000 0.45161  0.87446  0.51298  Biso   1.000  O
  O29      1.0000 0.43973  0.37335  0.25873  Biso   1.000  O
  O30      1.0000 0.45747  0.36884  0.76023  Biso   1.000  O
  O31      1.0000 0.48603  0.86159  0.26726  Biso   1.000  O
  O32      1.0000 0.45265  0.87083  0.75730  Biso   1.000  O
