data_image0
_cell_length_a       10.2491
_cell_length_b       10.4317
_cell_length_c       5.19963
_cell_angle_alpha    87.3471
_cell_angle_beta     95.0905
_cell_angle_gamma    92.2024

_symmetry_space_group_name_H-M    "P 1"
_symmetry_int_tables_number       1

loop_
  _symmetry_equiv_pos_as_xyz
  'x, y, z'

loop_
  _atom_site_label
  _atom_site_occupancy
  _atom_site_fract_x
  _atom_site_fract_y
  _atom_site_fract_z
  _atom_site_thermal_displace_type
  _atom_site_B_iso_or_equiv
  _atom_site_type_symbol
  Zr1      1.0000 0.11103  0.96253  0.21866  Biso   1.000  Zr
  Zr2      1.0000 0.12246  0.20697  0.60845  Biso   1.000  Zr
  Zr3      1.0000 0.39547  0.24951  0.20299  Biso   1.000  Zr
  Zr4      1.0000 0.36997  0.47998  0.72905  Biso   1.000  Zr
  O1       1.0000 0.97449  0.10170  0.39082  Biso   1.000  O
  O2       1.0000 0.04289  0.06605  0.88079  Biso   1.000  O
  O3       1.0000 0.46495  0.41937  0.41507  Biso   1.000  O
  O4       1.0000 0.49820  0.34884  0.93975  Biso   1.000  O
  O5       1.0000 0.24833  0.10938  0.38578  Biso   1.000  O
  O6       1.0000 0.28467  0.16850  0.87348  Biso   1.000  O
  O7       1.0000 0.27309  0.41103  0.02956  Biso   1.000  O
  O8       1.0000 0.20574  0.38432  0.49957  Biso   1.000  O
  Zr5      1.0000 0.14800  0.53883  0.23111  Biso   1.000  Zr
  Zr6      1.0000 0.13214  0.74590  0.72887  Biso   1.000  Zr
  Zr7      1.0000 0.37761  0.77866  0.26082  Biso   1.000  Zr
  Zr8      1.0000 0.37558  0.01558  0.72325  Biso   1.000  Zr
  O9       1.0000 0.03949  0.66268  0.39301  Biso   1.000  O
  O10      1.0000 0.03826  0.58121  0.86350  Biso   1.000  O
  O11      1.0000 0.50556  0.91184  0.49416  Biso   1.000  O
  O12      1.0000 0.50516  0.85910  0.98500  Biso   1.000  O
  O13      1.0000 0.28212  0.63132  0.51191  Biso   1.000  O
  O14      1.0000 0.26294  0.66434  0.01571  Biso   1.000  O
  O15      1.0000 0.25486  0.90683  0.98775  Biso   1.000  O
  O16      1.0000 0.25309  0.87050  0.49111  Biso   1.000  O
  Zr9      1.0000 0.64527  0.98592  0.23021  Biso   1.000  Zr
  Zr10     1.0000 0.63231  0.23228  0.79714  Biso   1.000  Zr
  Zr11     1.0000 0.83774  0.26961  0.33611  Biso   1.000  Zr
  Zr12     1.0000 0.86062  0.48183  0.80582  Biso   1.000  Zr
  O17      1.0000 0.48541  0.16625  0.53715  Biso   1.000  O
  O18      1.0000 0.50837  0.10406  0.03522  Biso   1.000  O
  O19      1.0000 0.95038  0.43700  0.19768  Biso   1.000  O
  O20      1.0000 0.95013  0.31739  0.68280  Biso   1.000  O
  O21      1.0000 0.73559  0.10267  0.54556  Biso   1.000  O
  O22      1.0000 0.76114  0.13361  0.05181  Biso   1.000  O
  O23      1.0000 0.73067  0.38020  0.03737  Biso   1.000  O
  O24      1.0000 0.70967  0.36508  0.53789  Biso   1.000  O
  Zr13     1.0000 0.61897  0.51253  0.24884  Biso   1.000  Zr
  Zr14     1.0000 0.61701  0.75481  0.75189  Biso   1.000  Zr
  Zr15     1.0000 0.86607  0.74168  0.25936  Biso   1.000  Zr
  Zr16     1.0000 0.88177  0.97970  0.71448  Biso   1.000  Zr
  O25      1.0000 0.53830  0.67319  0.40903  Biso   1.000  O
  O26      1.0000 0.51435  0.59910  0.91239  Biso   1.000  O
  O27      1.0000 0.99817  0.87355  0.49995  Biso   1.000  O
  O28      1.0000 0.99849  0.82853  0.98666  Biso   1.000  O
  O29      1.0000 0.77982  0.59652  0.48109  Biso   1.000  O
  O30      1.0000 0.75852  0.63781  0.97970  Biso   1.000  O
  O31      1.0000 0.75433  0.88597  0.98452  Biso   1.000  O
  O32      1.0000 0.75243  0.84909  0.48463  Biso   1.000  O
  Ba1      1.0000 0.08234  0.26576  0.08807  Biso   1.000  Ba
