data_image0
_cell_length_a       10.1417
_cell_length_b       5.22454
_cell_length_c       10.6058
_cell_angle_alpha    89.5838
_cell_angle_beta     90.7667
_cell_angle_gamma    90.4014

_symmetry_space_group_name_H-M    "P 1"
_symmetry_int_tables_number       1

loop_
  _symmetry_equiv_pos_as_xyz
  'x, y, z'

loop_
  _atom_site_label
  _atom_site_occupancy
  _atom_site_fract_x
  _atom_site_fract_y
  _atom_site_fract_z
  _atom_site_thermal_displace_type
  _atom_site_B_iso_or_equiv
  _atom_site_type_symbol
  Ba1      1.0000 0.10576  0.98741  0.15029  Biso   1.000  Ba
  Zr1      1.0000 0.14138  0.04517  0.66830  Biso   1.000  Zr
  Zr2      1.0000 0.14269  0.45486  0.42034  Biso   1.000  Zr
  Zr3      1.0000 0.15067  0.45975  0.91421  Biso   1.000  Zr
  Zr4      1.0000 0.36119  0.52015  0.16947  Biso   1.000  Zr
  Zr5      1.0000 0.36016  0.54528  0.66647  Biso   1.000  Zr
  Zr6      1.0000 0.35917  0.95577  0.41356  Biso   1.000  Zr
  Zr7      1.0000 0.36544  0.95788  0.91791  Biso   1.000  Zr
  Zr8      1.0000 0.63404  0.04767  0.07573  Biso   1.000  Zr
  Zr9      1.0000 0.63398  0.04100  0.58464  Biso   1.000  Zr
  Zr10     1.0000 0.63603  0.45295  0.33437  Biso   1.000  Zr
  Zr11     1.0000 0.63735  0.46324  0.82499  Biso   1.000  Zr
  Zr12     1.0000 0.86422  0.49990  0.05988  Biso   1.000  Zr
  Zr13     1.0000 0.86643  0.54560  0.58461  Biso   1.000  Zr
  Zr14     1.0000 0.85825  0.98351  0.35992  Biso   1.000  Zr
  Zr15     1.0000 0.86400  0.95416  0.82643  Biso   1.000  Zr
  O1       1.0000 0.04760  0.43474  0.09381  Biso   1.000  O
  O2       1.0000 0.04039  0.35839  0.59933  Biso   1.000  O
  O3       1.0000 0.02676  0.16200  0.36332  Biso   1.000  O
  O4       1.0000 0.03949  0.14890  0.84681  Biso   1.000  O
  O5       1.0000 0.47939  0.81841  0.07801  Biso   1.000  O
  O6       1.0000 0.46795  0.82407  0.57685  Biso   1.000  O
  O7       1.0000 0.48119  0.68768  0.32321  Biso   1.000  O
  O8       1.0000 0.47237  0.67971  0.82291  Biso   1.000  O
  O9       1.0000 0.28185  0.24335  0.29834  Biso   1.000  O
  O10      1.0000 0.27760  0.25033  0.78810  Biso   1.000  O
  O11      1.0000 0.28477  0.24303  0.03241  Biso   1.000  O
  O12      1.0000 0.27632  0.25064  0.54254  Biso   1.000  O
  O13      1.0000 0.23682  0.71709  0.29861  Biso   1.000  O
  O14      1.0000 0.22664  0.74962  0.78774  Biso   1.000  O
  O15      1.0000 0.25283  0.71691  0.02722  Biso   1.000  O
  O16      1.0000 0.22403  0.75810  0.54212  Biso   1.000  O
  O17      1.0000 0.53625  0.32321  0.17022  Biso   1.000  O
  O18      1.0000 0.53026  0.32764  0.66674  Biso   1.000  O
  O19      1.0000 0.53445  0.17193  0.41909  Biso   1.000  O
  O20      1.0000 0.53587  0.17848  0.91708  Biso   1.000  O
  O21      1.0000 0.86246  0.82445  0.17478  Biso   1.000  O
  O22      1.0000 0.96323  0.85948  0.65849  Biso   1.000  O
  O23      1.0000 0.96459  0.66513  0.41536  Biso   1.000  O
  O24      1.0000 0.96840  0.65595  0.90360  Biso   1.000  O
  O25      1.0000 0.77879  0.22664  0.95328  Biso   1.000  O
  O26      1.0000 0.77112  0.25895  0.46806  Biso   1.000  O
  O27      1.0000 0.77927  0.27359  0.21294  Biso   1.000  O
  O28      1.0000 0.77505  0.25445  0.70969  Biso   1.000  O
  O29      1.0000 0.72708  0.73670  0.95447  Biso   1.000  O
  O30      1.0000 0.72411  0.75267  0.46408  Biso   1.000  O
  O31      1.0000 0.72548  0.78413  0.21360  Biso   1.000  O
  O32      1.0000 0.72712  0.75034  0.70616  Biso   1.000  O
