data_image0
_cell_length_a       10.2701
_cell_length_b       10.327
_cell_length_c       5.3048
_cell_angle_alpha    90.1918
_cell_angle_beta     79.1426
_cell_angle_gamma    90.0199

_symmetry_space_group_name_H-M    "P 1"
_symmetry_int_tables_number       1

loop_
  _symmetry_equiv_pos_as_xyz
  'x, y, z'

loop_
  _atom_site_label
  _atom_site_occupancy
  _atom_site_fract_x
  _atom_site_fract_y
  _atom_site_fract_z
  _atom_site_thermal_displace_type
  _atom_site_B_iso_or_equiv
  _atom_site_type_symbol
  Zr1      1.0000 0.13202  0.02156  0.28657  Biso   1.000  Zr
  Zr2      1.0000 0.14464  0.23381  0.77801  Biso   1.000  Zr
  Zr3      1.0000 0.35790  0.27287  0.24120  Biso   1.000  Zr
  Zr4      1.0000 0.35655  0.46978  0.69988  Biso   1.000  Zr
  O1       1.0000 0.03872  0.16604  0.14333  Biso   1.000  O
  O2       1.0000 0.03091  0.08659  0.64811  Biso   1.000  O
  O3       1.0000 0.46675  0.42114  0.34216  Biso   1.000  O
  O4       1.0000 0.47279  0.33123  0.86192  Biso   1.000  O
  O5       1.0000 0.26907  0.11571  0.46494  Biso   1.000  O
  O6       1.0000 0.29535  0.13243  0.94771  Biso   1.000  O
  O7       1.0000 0.22439  0.37797  0.02016  Biso   1.000  O
  O8       1.0000 0.20420  0.38063  0.50679  Biso   1.000  O
  Zr5      1.0000 0.13918  0.52407  0.28190  Biso   1.000  Zr
  Zr6      1.0000 0.13586  0.72508  0.78960  Biso   1.000  Zr
  Zr7      1.0000 0.35951  0.76924  0.20612  Biso   1.000  Zr
  Zr8      1.0000 0.35592  0.96733  0.70045  Biso   1.000  Zr
  O9       1.0000 0.02793  0.66484  0.14776  Biso   1.000  O
  O10      1.0000 0.02931  0.59006  0.64611  Biso   1.000  O
  O11      1.0000 0.46895  0.91055  0.35415  Biso   1.000  O
  O12      1.0000 0.46800  0.83916  0.85064  Biso   1.000  O
  O13      1.0000 0.27496  0.62702  0.47741  Biso   1.000  O
  O14      1.0000 0.27322  0.62365  0.97649  Biso   1.000  O
  O15      1.0000 0.22307  0.88123  0.01541  Biso   1.000  O
  O16      1.0000 0.22242  0.86688  0.51510  Biso   1.000  O
  Zr9      1.0000 0.63879  0.02275  0.29543  Biso   1.000  Zr
  Zr10     1.0000 0.65101  0.23055  0.80727  Biso   1.000  Zr
  Zr11     1.0000 0.86546  0.27358  0.21256  Biso   1.000  Zr
  Zr12     1.0000 0.86249  0.47959  0.71083  Biso   1.000  Zr
  O17      1.0000 0.53453  0.16178  0.15462  Biso   1.000  O
  O18      1.0000 0.51680  0.10775  0.64450  Biso   1.000  O
  O19      1.0000 0.96408  0.41794  0.34471  Biso   1.000  O
  O20      1.0000 0.96619  0.33821  0.84886  Biso   1.000  O
  O21      1.0000 0.77224  0.12778  0.48987  Biso   1.000  O
  O22      1.0000 0.77931  0.12066  0.98978  Biso   1.000  O
  O23      1.0000 0.72606  0.37735  0.03029  Biso   1.000  O
  O24      1.0000 0.72526  0.37217  0.52852  Biso   1.000  O
  Zr13     1.0000 0.63757  0.52388  0.29946  Biso   1.000  Zr
  Zr14     1.0000 0.63697  0.72647  0.79387  Biso   1.000  Zr
  Zr15     1.0000 0.85796  0.77193  0.20988  Biso   1.000  Zr
  Zr16     1.0000 0.86232  0.97699  0.71248  Biso   1.000  Zr
  O25      1.0000 0.53192  0.66632  0.15699  Biso   1.000  O
  O26      1.0000 0.53192  0.58331  0.66068  Biso   1.000  O
  O27      1.0000 0.96474  0.91261  0.35096  Biso   1.000  O
  O28      1.0000 0.96640  0.83725  0.85048  Biso   1.000  O
  O29      1.0000 0.77408  0.63058  0.48298  Biso   1.000  O
  O30      1.0000 0.77314  0.62215  0.98272  Biso   1.000  O
  O31      1.0000 0.72287  0.87971  0.02464  Biso   1.000  O
  O32      1.0000 0.72144  0.87410  0.52681  Biso   1.000  O
  Be1      1.0000 0.40617  0.21584  0.73888  Biso   1.000  Be
