data_image0
_cell_length_a       10.1264
_cell_length_b       10.2706
_cell_length_c       10.5246
_cell_angle_alpha    89.9706
_cell_angle_beta     90.2236
_cell_angle_gamma    90.008

_symmetry_space_group_name_H-M    "P 1"
_symmetry_int_tables_number       1

loop_
  _symmetry_equiv_pos_as_xyz
  'x, y, z'

loop_
  _atom_site_label
  _atom_site_occupancy
  _atom_site_fract_x
  _atom_site_fract_y
  _atom_site_fract_z
  _atom_site_thermal_displace_type
  _atom_site_B_iso_or_equiv
  _atom_site_type_symbol
  Be1      1.0000 0.04633  0.04957  0.17884  Biso   1.000  Be
  Zr1      1.0000 0.13968  0.01997  0.67091  Biso   1.000  Zr
  Zr2      1.0000 0.14088  0.52063  0.17199  Biso   1.000  Zr
  Zr3      1.0000 0.14007  0.52073  0.67244  Biso   1.000  Zr
  Zr4      1.0000 0.14094  0.22550  0.41796  Biso   1.000  Zr
  Zr5      1.0000 0.14314  0.22427  0.92496  Biso   1.000  Zr
  Zr6      1.0000 0.14169  0.73039  0.41986  Biso   1.000  Zr
  Zr7      1.0000 0.14366  0.73102  0.92314  Biso   1.000  Zr
  Zr8      1.0000 0.35524  0.26342  0.17242  Biso   1.000  Zr
  Zr9      1.0000 0.36019  0.27004  0.67221  Biso   1.000  Zr
  Zr10     1.0000 0.35647  0.77610  0.17207  Biso   1.000  Zr
  Zr11     1.0000 0.36166  0.77142  0.67168  Biso   1.000  Zr
  Zr12     1.0000 0.36016  0.47766  0.42126  Biso   1.000  Zr
  Zr13     1.0000 0.36029  0.47691  0.92411  Biso   1.000  Zr
  Zr14     1.0000 0.35678  0.97999  0.41776  Biso   1.000  Zr
  Zr15     1.0000 0.35947  0.97891  0.92520  Biso   1.000  Zr
  Zr16     1.0000 0.64130  0.02131  0.07808  Biso   1.000  Zr
  Zr17     1.0000 0.63787  0.01986  0.57824  Biso   1.000  Zr
  Zr18     1.0000 0.63804  0.52123  0.07910  Biso   1.000  Zr
  Zr19     1.0000 0.63956  0.52001  0.57887  Biso   1.000  Zr
  Zr20     1.0000 0.63855  0.22928  0.32777  Biso   1.000  Zr
  Zr21     1.0000 0.64006  0.22866  0.82818  Biso   1.000  Zr
  Zr22     1.0000 0.63841  0.72869  0.32734  Biso   1.000  Zr
  Zr23     1.0000 0.63974  0.72881  0.82919  Biso   1.000  Zr
  Zr24     1.0000 0.86226  0.27166  0.07825  Biso   1.000  Zr
  Zr25     1.0000 0.86245  0.27022  0.57744  Biso   1.000  Zr
  Zr26     1.0000 0.86496  0.77303  0.07937  Biso   1.000  Zr
  Zr27     1.0000 0.86179  0.76944  0.57918  Biso   1.000  Zr
  Zr28     1.0000 0.86181  0.47952  0.32856  Biso   1.000  Zr
  Zr29     1.0000 0.86318  0.47841  0.82961  Biso   1.000  Zr
  Zr30     1.0000 0.85816  0.97809  0.33149  Biso   1.000  Zr
  Zr31     1.0000 0.86190  0.97872  0.82839  Biso   1.000  Zr
  O1       1.0000 0.03304  0.15996  0.08202  Biso   1.000  O
  O2       1.0000 0.02965  0.15778  0.57570  Biso   1.000  O
  O3       1.0000 0.03307  0.66515  0.08368  Biso   1.000  O
  O4       1.0000 0.03180  0.66216  0.58305  Biso   1.000  O
  O5       1.0000 0.02722  0.09205  0.32061  Biso   1.000  O
  O6       1.0000 0.03084  0.08812  0.82971  Biso   1.000  O
  O7       1.0000 0.03139  0.58804  0.33191  Biso   1.000  O
  O8       1.0000 0.03292  0.58522  0.83293  Biso   1.000  O
  O9       1.0000 0.46935  0.40907  0.08196  Biso   1.000  O
  O10      1.0000 0.46979  0.41099  0.58131  Biso   1.000  O
  O11      1.0000 0.47526  0.91077  0.08112  Biso   1.000  O
  O12      1.0000 0.46907  0.91090  0.57967  Biso   1.000  O
  O13      1.0000 0.47090  0.34000  0.33092  Biso   1.000  O
  O14      1.0000 0.47086  0.33793  0.83085  Biso   1.000  O
  O15      1.0000 0.47482  0.84392  0.32777  Biso   1.000  O
  O16      1.0000 0.47135  0.83852  0.82997  Biso   1.000  O
  O17      1.0000 0.28462  0.13118  0.30586  Biso   1.000  O
  O18      1.0000 0.27438  0.12243  0.79286  Biso   1.000  O
  O19      1.0000 0.27663  0.62126  0.29534  Biso   1.000  O
  O20      1.0000 0.27664  0.62348  0.79624  Biso   1.000  O
  O21      1.0000 0.29090  0.13618  0.03367  Biso   1.000  O
  O22      1.0000 0.27430  0.12486  0.54734  Biso   1.000  O
  O23      1.0000 0.27546  0.62151  0.04722  Biso   1.000  O
  O24      1.0000 0.27593  0.62557  0.54576  Biso   1.000  O
  O25      1.0000 0.22317  0.37420  0.29621  Biso   1.000  O
  O26      1.0000 0.22614  0.37257  0.79685  Biso   1.000  O
  O27      1.0000 0.23074  0.86648  0.30170  Biso   1.000  O
  O28      1.0000 0.22553  0.87344  0.79303  Biso   1.000  O
  O29      1.0000 0.22212  0.37645  0.04721  Biso   1.000  O
  O30      1.0000 0.22511  0.37473  0.54563  Biso   1.000  O
  O31      1.0000 0.23749  0.86666  0.03692  Biso   1.000  O
  O32      1.0000 0.22411  0.87604  0.54665  Biso   1.000  O
  O33      1.0000 0.53236  0.16174  0.16868  Biso   1.000  O
  O34      1.0000 0.53087  0.16159  0.66864  Biso   1.000  O
  O35      1.0000 0.52933  0.66096  0.16979  Biso   1.000  O
  O36      1.0000 0.53187  0.66085  0.66942  Biso   1.000  O
  O37      1.0000 0.53249  0.08768  0.41856  Biso   1.000  O
  O38      1.0000 0.53513  0.08621  0.91764  Biso   1.000  O
  O39      1.0000 0.53016  0.58882  0.41978  Biso   1.000  O
  O40      1.0000 0.53059  0.58749  0.91969  Biso   1.000  O
  O41      1.0000 0.96887  0.41337  0.16846  Biso   1.000  O
  O42      1.0000 0.97062  0.41038  0.66929  Biso   1.000  O
  O43      1.0000 0.96478  0.92411  0.16355  Biso   1.000  O
  O44      1.0000 0.96820  0.91196  0.66799  Biso   1.000  O
  O45      1.0000 0.96940  0.33782  0.41789  Biso   1.000  O
  O46      1.0000 0.97081  0.33671  0.92054  Biso   1.000  O
  O47      1.0000 0.96840  0.83711  0.41729  Biso   1.000  O
  O48      1.0000 0.97019  0.83597  0.91695  Biso   1.000  O
  O49      1.0000 0.77779  0.12449  0.95406  Biso   1.000  O
  O50      1.0000 0.77522  0.12338  0.45459  Biso   1.000  O
  O51      1.0000 0.77585  0.62411  0.95536  Biso   1.000  O
  O52      1.0000 0.77504  0.62325  0.45479  Biso   1.000  O
  O53      1.0000 0.77570  0.12693  0.20473  Biso   1.000  O
  O54      1.0000 0.77525  0.12514  0.70387  Biso   1.000  O
  O55      1.0000 0.77555  0.62688  0.20440  Biso   1.000  O
  O56      1.0000 0.77606  0.62495  0.70503  Biso   1.000  O
  O57      1.0000 0.72600  0.37406  0.95468  Biso   1.000  O
  O58      1.0000 0.72574  0.37383  0.45479  Biso   1.000  O
  O59      1.0000 0.72736  0.87412  0.95513  Biso   1.000  O
  O60      1.0000 0.72457  0.87277  0.45638  Biso   1.000  O
  O61      1.0000 0.72574  0.37652  0.20448  Biso   1.000  O
  O62      1.0000 0.72663  0.37528  0.70436  Biso   1.000  O
  O63      1.0000 0.72662  0.87581  0.20645  Biso   1.000  O
  O64      1.0000 0.72547  0.87464  0.70524  Biso   1.000  O
