data_image0
_cell_length_a       10.2296
_cell_length_b       10.487
_cell_length_c       5.22657
_cell_angle_alpha    89.017
_cell_angle_beta     95.6782
_cell_angle_gamma    87.7257

_symmetry_space_group_name_H-M    "P 1"
_symmetry_int_tables_number       1

loop_
  _symmetry_equiv_pos_as_xyz
  'x, y, z'

loop_
  _atom_site_label
  _atom_site_occupancy
  _atom_site_fract_x
  _atom_site_fract_y
  _atom_site_fract_z
  _atom_site_thermal_displace_type
  _atom_site_B_iso_or_equiv
  _atom_site_type_symbol
  Zr1      1.0000 0.14638  0.95988  0.19663  Biso   1.000  Zr
  Zr2      1.0000 0.12186  0.18664  0.73140  Biso   1.000  Zr
  Zr3      1.0000 0.37936  0.25196  0.17300  Biso   1.000  Zr
  Zr4      1.0000 0.39868  0.01220  0.69586  Biso   1.000  Zr
  O1       1.0000 0.01217  0.10306  0.02990  Biso   1.000  O
  O2       1.0000 0.96292  0.10266  0.52856  Biso   1.000  O
  O3       1.0000 0.96988  0.34246  0.69451  Biso   1.000  O
  O4       1.0000 0.98125  0.46065  0.13553  Biso   1.000  O
  O5       1.0000 0.23673  0.10897  0.44986  Biso   1.000  O
  O6       1.0000 0.26609  0.06693  0.95804  Biso   1.000  O
  O7       1.0000 0.28347  0.30872  0.79719  Biso   1.000  O
  O8       1.0000 0.26402  0.42437  0.32294  Biso   1.000  O
  Zr5      1.0000 0.12918  0.58371  0.20618  Biso   1.000  Zr
  Zr6      1.0000 0.13118  0.75233  0.71247  Biso   1.000  Zr
  Zr7      1.0000 0.40688  0.76037  0.30660  Biso   1.000  Zr
  Zr8      1.0000 0.35284  0.47665  0.67593  Biso   1.000  Zr
  O9       1.0000 0.98398  0.68172  0.97562  Biso   1.000  O
  O10      1.0000 0.99873  0.61499  0.51840  Biso   1.000  O
  O11      1.0000 0.03490  0.83275  0.36604  Biso   1.000  O
  O12      1.0000 0.03270  0.90260  0.85030  Biso   1.000  O
  O13      1.0000 0.26558  0.64940  0.47051  Biso   1.000  O
  O14      1.0000 0.21336  0.56752  0.88005  Biso   1.000  O
  O15      1.0000 0.24473  0.79994  0.05249  Biso   1.000  O
  O16      1.0000 0.27662  0.87757  0.52998  Biso   1.000  O
  Zr9      1.0000 0.63294  0.00485  0.24792  Biso   1.000  Zr
  Zr10     1.0000 0.63014  0.27637  0.81673  Biso   1.000  Zr
  Zr11     1.0000 0.84369  0.26285  0.40304  Biso   1.000  Zr
  Zr12     1.0000 0.86124  0.01177  0.79747  Biso   1.000  Zr
  O17      1.0000 0.50515  0.14556  0.93145  Biso   1.000  O
  O18      1.0000 0.47871  0.10051  0.39774  Biso   1.000  O
  O19      1.0000 0.50096  0.35368  0.48004  Biso   1.000  O
  O20      1.0000 0.49176  0.40102  0.99227  Biso   1.000  O
  O21      1.0000 0.71835  0.14717  0.57184  Biso   1.000  O
  O22      1.0000 0.75577  0.12180  0.06582  Biso   1.000  O
  O23      1.0000 0.73168  0.36339  0.11493  Biso   1.000  O
  O24      1.0000 0.73608  0.40912  0.59973  Biso   1.000  O
  Zr13     1.0000 0.61163  0.49918  0.28644  Biso   1.000  Zr
  Zr14     1.0000 0.61799  0.73465  0.81987  Biso   1.000  Zr
  Zr15     1.0000 0.85797  0.74739  0.28997  Biso   1.000  Zr
  Zr16     1.0000 0.88786  0.52272  0.78551  Biso   1.000  Zr
  O25      1.0000 0.50406  0.64563  0.07009  Biso   1.000  O
  O26      1.0000 0.50511  0.60910  0.56241  Biso   1.000  O
  O27      1.0000 0.53372  0.86829  0.53397  Biso   1.000  O
  O28      1.0000 0.50027  0.88962  0.02245  Biso   1.000  O
  O29      1.0000 0.74798  0.65712  0.55030  Biso   1.000  O
  O30      1.0000 0.74855  0.60904  0.05090  Biso   1.000  O
  O31      1.0000 0.75409  0.86512  0.98774  Biso   1.000  O
  O32      1.0000 0.78452  0.90818  0.47007  Biso   1.000  O
  Bi1      1.0000 0.09557  0.28215  0.21413  Biso   1.000  Bi
