data_image0
_cell_length_a       10.0534
_cell_length_b       10.4488
_cell_length_c       10.0842
_cell_angle_alpha    90.0259
_cell_angle_beta     90.0152
_cell_angle_gamma    89.9586

_symmetry_space_group_name_H-M    "P 1"
_symmetry_int_tables_number       1

loop_
  _symmetry_equiv_pos_as_xyz
  'x, y, z'

loop_
  _atom_site_label
  _atom_site_occupancy
  _atom_site_fract_x
  _atom_site_fract_y
  _atom_site_fract_z
  _atom_site_thermal_displace_type
  _atom_site_B_iso_or_equiv
  _atom_site_type_symbol
  Bi1      1.0000 0.12863  0.01526  0.12136  Biso   1.000  Bi
  Zr1      1.0000 0.13339  0.01549  0.62584  Biso   1.000  Zr
  Zr2      1.0000 0.13339  0.51574  0.12571  Biso   1.000  Zr
  Zr3      1.0000 0.13374  0.51587  0.62547  Biso   1.000  Zr
  Zr4      1.0000 0.63410  0.01524  0.12626  Biso   1.000  Zr
  Zr5      1.0000 0.63362  0.01607  0.62541  Biso   1.000  Zr
  Zr6      1.0000 0.63364  0.51537  0.12605  Biso   1.000  Zr
  Zr7      1.0000 0.63370  0.51537  0.62554  Biso   1.000  Zr
  Zr8      1.0000 0.13506  0.23513  0.37784  Biso   1.000  Zr
  Zr9      1.0000 0.13411  0.23765  0.87201  Biso   1.000  Zr
  Zr10     1.0000 0.13393  0.73359  0.37644  Biso   1.000  Zr
  Zr11     1.0000 0.13380  0.73337  0.87526  Biso   1.000  Zr
  Zr12     1.0000 0.63333  0.23423  0.37514  Biso   1.000  Zr
  Zr13     1.0000 0.63424  0.23394  0.87579  Biso   1.000  Zr
  Zr14     1.0000 0.63363  0.73385  0.37682  Biso   1.000  Zr
  Zr15     1.0000 0.63355  0.73328  0.87511  Biso   1.000  Zr
  Zr16     1.0000 0.36667  0.26722  0.12617  Biso   1.000  Zr
  Zr17     1.0000 0.36703  0.26538  0.62514  Biso   1.000  Zr
  Zr18     1.0000 0.36847  0.76328  0.12536  Biso   1.000  Zr
  Zr19     1.0000 0.36587  0.76564  0.62564  Biso   1.000  Zr
  Zr20     1.0000 0.86319  0.26718  0.12561  Biso   1.000  Zr
  Zr21     1.0000 0.86610  0.26623  0.62514  Biso   1.000  Zr
  Zr22     1.0000 0.86393  0.76298  0.12568  Biso   1.000  Zr
  Zr23     1.0000 0.86647  0.76518  0.62505  Biso   1.000  Zr
  Zr24     1.0000 0.36587  0.48437  0.37572  Biso   1.000  Zr
  Zr25     1.0000 0.36673  0.48440  0.87558  Biso   1.000  Zr
  Zr26     1.0000 0.36655  0.98362  0.37598  Biso   1.000  Zr
  Zr27     1.0000 0.36866  0.98513  0.87333  Biso   1.000  Zr
  Zr28     1.0000 0.86636  0.48419  0.37591  Biso   1.000  Zr
  Zr29     1.0000 0.86630  0.48385  0.87559  Biso   1.000  Zr
  Zr30     1.0000 0.86419  0.98467  0.37850  Biso   1.000  Zr
  Zr31     1.0000 0.86292  0.98207  0.87400  Biso   1.000  Zr
  O1       1.0000 0.03289  0.19143  0.19794  Biso   1.000  O
  O2       1.0000 0.03741  0.18615  0.68985  Biso   1.000  O
  O3       1.0000 0.03590  0.68545  0.19442  Biso   1.000  O
  O4       1.0000 0.03554  0.68367  0.69431  Biso   1.000  O
  O5       1.0000 0.53736  0.18478  0.19232  Biso   1.000  O
  O6       1.0000 0.53566  0.18347  0.69499  Biso   1.000  O
  O7       1.0000 0.53643  0.68277  0.19591  Biso   1.000  O
  O8       1.0000 0.53505  0.68301  0.69487  Biso   1.000  O
  O9       1.0000 0.03587  0.06558  0.44239  Biso   1.000  O
  O10      1.0000 0.03435  0.06858  0.92963  Biso   1.000  O
  O11      1.0000 0.03550  0.56575  0.44503  Biso   1.000  O
  O12      1.0000 0.03470  0.56710  0.94466  Biso   1.000  O
  O13      1.0000 0.53594  0.06629  0.44449  Biso   1.000  O
  O14      1.0000 0.53769  0.06554  0.94317  Biso   1.000  O
  O15      1.0000 0.53533  0.56582  0.44499  Biso   1.000  O
  O16      1.0000 0.53472  0.56676  0.94606  Biso   1.000  O
  O17      1.0000 0.46477  0.43389  0.19516  Biso   1.000  O
  O18      1.0000 0.46531  0.43334  0.69471  Biso   1.000  O
  O19      1.0000 0.46483  0.93399  0.19371  Biso   1.000  O
  O20      1.0000 0.46481  0.93361  0.69384  Biso   1.000  O
  O21      1.0000 0.96281  0.43572  0.19408  Biso   1.000  O
  O22      1.0000 0.96532  0.43365  0.69575  Biso   1.000  O
  O23      1.0000 0.94994  0.93289  0.19498  Biso   1.000  O
  O24      1.0000 0.96280  0.93373  0.69234  Biso   1.000  O
  O25      1.0000 0.46414  0.31588  0.44423  Biso   1.000  O
  O26      1.0000 0.46561  0.31697  0.94416  Biso   1.000  O
  O27      1.0000 0.46559  0.81636  0.44635  Biso   1.000  O
  O28      1.0000 0.46584  0.81632  0.94371  Biso   1.000  O
  O29      1.0000 0.96450  0.31720  0.44514  Biso   1.000  O
  O30      1.0000 0.96497  0.31704  0.94533  Biso   1.000  O
  O31      1.0000 0.96438  0.81604  0.44460  Biso   1.000  O
  O32      1.0000 0.96610  0.81801  0.94652  Biso   1.000  O
  O33      1.0000 0.27638  0.12302  0.25342  Biso   1.000  O
  O34      1.0000 0.27029  0.11728  0.74748  Biso   1.000  O
  O35      1.0000 0.26922  0.61487  0.24892  Biso   1.000  O
  O36      1.0000 0.26933  0.61665  0.74897  Biso   1.000  O
  O37      1.0000 0.76818  0.11744  0.25055  Biso   1.000  O
  O38      1.0000 0.76960  0.11690  0.74865  Biso   1.000  O
  O39      1.0000 0.76929  0.61650  0.24925  Biso   1.000  O
  O40      1.0000 0.76957  0.61640  0.74872  Biso   1.000  O
  O41      1.0000 0.26946  0.13254  0.50023  Biso   1.000  O
  O42      1.0000 0.27291  0.13677  0.99399  Biso   1.000  O
  O43      1.0000 0.26964  0.63297  0.49930  Biso   1.000  O
  O44      1.0000 0.26945  0.63204  0.99901  Biso   1.000  O
  O45      1.0000 0.76890  0.13350  0.49970  Biso   1.000  O
  O46      1.0000 0.77092  0.13214  0.99934  Biso   1.000  O
  O47      1.0000 0.76953  0.63275  0.49902  Biso   1.000  O
  O48      1.0000 0.76882  0.63174  0.99841  Biso   1.000  O
  O49      1.0000 0.23095  0.38326  0.49936  Biso   1.000  O
  O50      1.0000 0.23088  0.38417  0.99858  Biso   1.000  O
  O51      1.0000 0.23045  0.88315  0.49973  Biso   1.000  O
  O52      1.0000 0.23613  0.87769  0.99484  Biso   1.000  O
  O53      1.0000 0.73046  0.38299  0.49908  Biso   1.000  O
  O54      1.0000 0.73010  0.38290  0.99901  Biso   1.000  O
  O55      1.0000 0.73006  0.88266  0.50026  Biso   1.000  O
  O56      1.0000 0.72937  0.88105  0.99933  Biso   1.000  O
  O57      1.0000 0.22977  0.36821  0.24939  Biso   1.000  O
  O58      1.0000 0.23184  0.36781  0.74791  Biso   1.000  O
  O59      1.0000 0.23774  0.85984  0.25333  Biso   1.000  O
  O60      1.0000 0.23033  0.86687  0.74819  Biso   1.000  O
  O61      1.0000 0.72965  0.36773  0.24956  Biso   1.000  O
  O62      1.0000 0.73094  0.36665  0.74924  Biso   1.000  O
  O63      1.0000 0.72788  0.86616  0.25033  Biso   1.000  O
  O64      1.0000 0.73010  0.86627  0.74895  Biso   1.000  O
