data_image0
_cell_length_a       10.2767
_cell_length_b       10.6039
_cell_length_c       5.32091
_cell_angle_alpha    93.3434
_cell_angle_beta     94.0023
_cell_angle_gamma    87.1583

_symmetry_space_group_name_H-M    "P 1"
_symmetry_int_tables_number       1

loop_
  _symmetry_equiv_pos_as_xyz
  'x, y, z'

loop_
  _atom_site_label
  _atom_site_occupancy
  _atom_site_fract_x
  _atom_site_fract_y
  _atom_site_fract_z
  _atom_site_thermal_displace_type
  _atom_site_B_iso_or_equiv
  _atom_site_type_symbol
  Zr1      1.0000 0.13046  0.01680  0.36350  Biso   1.000  Zr
  Zr2      1.0000 0.14462  0.22898  0.88650  Biso   1.000  Zr
  Zr3      1.0000 0.34137  0.24862  0.42409  Biso   1.000  Zr
  Zr4      1.0000 0.37943  0.50115  0.81477  Biso   1.000  Zr
  Zr5      1.0000 0.62623  0.99886  0.19546  Biso   1.000  Zr
  Zr6      1.0000 0.66430  0.25138  0.58613  Biso   1.000  Zr
  Zr7      1.0000 0.86105  0.27103  0.12371  Biso   1.000  Zr
  Zr8      1.0000 0.87521  0.48321  0.64671  Biso   1.000  Zr
  O1       1.0000 0.02794  0.16195  0.17181  Biso   1.000  O
  O2       1.0000 0.03402  0.08558  0.67968  Biso   1.000  O
  O3       1.0000 0.48619  0.45607  0.12470  Biso   1.000  O
  O4       1.0000 0.48384  0.36642  0.57931  Biso   1.000  O
  O5       1.0000 0.26677  0.11324  0.63352  Biso   1.000  O
  O6       1.0000 0.26376  0.10499  0.13662  Biso   1.000  O
  O7       1.0000 0.22913  0.37481  0.65313  Biso   1.000  O
  O8       1.0000 0.22241  0.35783  0.16769  Biso   1.000  O
  O9       1.0000 0.52182  0.13358  0.43093  Biso   1.000  O
  O10      1.0000 0.51947  0.04395  0.88555  Biso   1.000  O
  O11      1.0000 0.97164  0.41442  0.33055  Biso   1.000  O
  O12      1.0000 0.97773  0.33806  0.83842  Biso   1.000  O
  O13      1.0000 0.78325  0.14218  0.84256  Biso   1.000  O
  O14      1.0000 0.77654  0.12517  0.35714  Biso   1.000  O
  O15      1.0000 0.74191  0.39502  0.87359  Biso   1.000  O
  O16      1.0000 0.73890  0.38676  0.37669  Biso   1.000  O
  Zr9      1.0000 0.13553  0.51529  0.33865  Biso   1.000  Zr
  Zr10     1.0000 0.13711  0.72746  0.84531  Biso   1.000  Zr
  Zr11     1.0000 0.35854  0.76263  0.35800  Biso   1.000  Zr
  Zr12     1.0000 0.34997  0.95932  0.88342  Biso   1.000  Zr
  Zr13     1.0000 0.65569  0.54069  0.12681  Biso   1.000  Zr
  Zr14     1.0000 0.64712  0.73738  0.65223  Biso   1.000  Zr
  Zr15     1.0000 0.86854  0.77256  0.16490  Biso   1.000  Zr
  Zr16     1.0000 0.87013  0.98473  0.67156  Biso   1.000  Zr
  O17      1.0000 0.03708  0.66139  0.16024  Biso   1.000  O
  O18      1.0000 0.03857  0.58474  0.66183  Biso   1.000  O
  O19      1.0000 0.45958  0.90071  0.20707  Biso   1.000  O
  O20      1.0000 0.46369  0.82455  0.68643  Biso   1.000  O
  O21      1.0000 0.27244  0.62542  0.57505  Biso   1.000  O
  O22      1.0000 0.27508  0.61961  0.07588  Biso   1.000  O
  O23      1.0000 0.21843  0.86720  0.61010  Biso   1.000  O
  O24      1.0000 0.21993  0.86489  0.11467  Biso   1.000  O
  O25      1.0000 0.54197  0.67546  0.32379  Biso   1.000  O
  O26      1.0000 0.54608  0.59930  0.80315  Biso   1.000  O
  O27      1.0000 0.96709  0.91527  0.34838  Biso   1.000  O
  O28      1.0000 0.96857  0.83862  0.84998  Biso   1.000  O
  O29      1.0000 0.78573  0.63512  0.89556  Biso   1.000  O
  O30      1.0000 0.78722  0.63280  0.40013  Biso   1.000  O
  O31      1.0000 0.73056  0.88039  0.93436  Biso   1.000  O
  O32      1.0000 0.73322  0.87458  0.43518  Biso   1.000  O
  Bi1      1.0000 0.50285  0.25001  0.00513  Biso   1.000  Bi
