data_image0
_cell_length_a       10.137
_cell_length_b       5.13031
_cell_length_c       10.5293
_cell_angle_alpha    89.7025
_cell_angle_beta     90.1963
_cell_angle_gamma    89.7995

_symmetry_space_group_name_H-M    "P 1"
_symmetry_int_tables_number       1

loop_
  _symmetry_equiv_pos_as_xyz
  'x, y, z'

loop_
  _atom_site_label
  _atom_site_occupancy
  _atom_site_fract_x
  _atom_site_fract_y
  _atom_site_fract_z
  _atom_site_thermal_displace_type
  _atom_site_B_iso_or_equiv
  _atom_site_type_symbol
  C1       1.0000 0.01879  0.12615  0.18333  Biso   1.000  C
  Zr1      1.0000 0.14202  0.04106  0.67104  Biso   1.000  Zr
  Zr2      1.0000 0.15200  0.46813  0.41801  Biso   1.000  Zr
  Zr3      1.0000 0.15532  0.45437  0.92222  Biso   1.000  Zr
  Zr4      1.0000 0.35093  0.54163  0.17212  Biso   1.000  Zr
  Zr5      1.0000 0.36439  0.54202  0.67129  Biso   1.000  Zr
  Zr6      1.0000 0.35877  0.96138  0.41495  Biso   1.000  Zr
  Zr7      1.0000 0.35925  0.95361  0.92860  Biso   1.000  Zr
  Zr8      1.0000 0.63353  0.04434  0.08007  Biso   1.000  Zr
  Zr9      1.0000 0.63678  0.03431  0.58238  Biso   1.000  Zr
  Zr10     1.0000 0.63236  0.45356  0.32796  Biso   1.000  Zr
  Zr11     1.0000 0.63808  0.45506  0.82803  Biso   1.000  Zr
  Zr12     1.0000 0.85306  0.54205  0.07170  Biso   1.000  Zr
  Zr13     1.0000 0.86595  0.52998  0.57891  Biso   1.000  Zr
  Zr14     1.0000 0.84902  0.95018  0.33953  Biso   1.000  Zr
  Zr15     1.0000 0.86919  0.95021  0.82775  Biso   1.000  Zr
  O1       1.0000 0.03299  0.30282  0.09810  Biso   1.000  O
  O2       1.0000 0.02905  0.29637  0.56481  Biso   1.000  O
  O3       1.0000 0.02844  0.18792  0.30180  Biso   1.000  O
  O4       1.0000 0.03324  0.17551  0.82953  Biso   1.000  O
  O5       1.0000 0.47373  0.81803  0.08227  Biso   1.000  O
  O6       1.0000 0.46871  0.82449  0.58083  Biso   1.000  O
  O7       1.0000 0.47529  0.68765  0.32753  Biso   1.000  O
  O8       1.0000 0.47186  0.67164  0.83026  Biso   1.000  O
  O9       1.0000 0.28467  0.26424  0.30748  Biso   1.000  O
  O10      1.0000 0.27740  0.24011  0.79190  Biso   1.000  O
  O11      1.0000 0.28847  0.26275  0.03545  Biso   1.000  O
  O12      1.0000 0.27720  0.25211  0.54848  Biso   1.000  O
  O13      1.0000 0.22877  0.74464  0.30071  Biso   1.000  O
  O14      1.0000 0.22731  0.74030  0.79351  Biso   1.000  O
  O15      1.0000 0.23247  0.73505  0.03800  Biso   1.000  O
  O16      1.0000 0.22535  0.75064  0.54515  Biso   1.000  O
  O17      1.0000 0.53234  0.32774  0.16833  Biso   1.000  O
  O18      1.0000 0.53526  0.32495  0.66813  Biso   1.000  O
  O19      1.0000 0.53643  0.16802  0.41907  Biso   1.000  O
  O20      1.0000 0.53775  0.16578  0.91738  Biso   1.000  O
  O21      1.0000 0.97304  0.90012  0.16105  Biso   1.000  O
  O22      1.0000 0.97521  0.80288  0.67387  Biso   1.000  O
  O23      1.0000 0.96928  0.67858  0.41400  Biso   1.000  O
  O24      1.0000 0.97414  0.66347  0.93095  Biso   1.000  O
  O25      1.0000 0.78003  0.25180  0.95895  Biso   1.000  O
  O26      1.0000 0.77693  0.23822  0.45737  Biso   1.000  O
  O27      1.0000 0.77684  0.25134  0.20725  Biso   1.000  O
  O28      1.0000 0.77887  0.24286  0.70678  Biso   1.000  O
  O29      1.0000 0.72808  0.75012  0.95459  Biso   1.000  O
  O30      1.0000 0.72425  0.73636  0.45822  Biso   1.000  O
  O31      1.0000 0.73648  0.75100  0.20515  Biso   1.000  O
  O32      1.0000 0.73068  0.74443  0.70524  Biso   1.000  O
