data_image0
_cell_length_a       10.0727
_cell_length_b       5.03457
_cell_length_c       10.0727
_cell_angle_alpha    89.992
_cell_angle_beta     87.9445
_cell_angle_gamma    89.9925

_symmetry_space_group_name_H-M    "P 1"
_symmetry_int_tables_number       1

loop_
  _symmetry_equiv_pos_as_xyz
  'x, y, z'

loop_
  _atom_site_label
  _atom_site_occupancy
  _atom_site_fract_x
  _atom_site_fract_y
  _atom_site_fract_z
  _atom_site_thermal_displace_type
  _atom_site_B_iso_or_equiv
  _atom_site_type_symbol
  C1       1.0000 0.12473  0.95483  0.12473  Biso   1.000  C
  Zr1      1.0000 0.12477  0.01409  0.62474  Biso   1.000  Zr
  Zr2      1.0000 0.62474  0.01409  0.12478  Biso   1.000  Zr
  Zr3      1.0000 0.62479  0.00965  0.62479  Biso   1.000  Zr
  Zr4      1.0000 0.13020  0.51753  0.37690  Biso   1.000  Zr
  Zr5      1.0000 0.11938  0.51748  0.87263  Biso   1.000  Zr
  Zr6      1.0000 0.63161  0.51207  0.37832  Biso   1.000  Zr
  Zr7      1.0000 0.61797  0.51204  0.87124  Biso   1.000  Zr
  Zr8      1.0000 0.37690  0.51753  0.13020  Biso   1.000  Zr
  Zr9      1.0000 0.37832  0.51206  0.63161  Biso   1.000  Zr
  Zr10     1.0000 0.87263  0.51746  0.11938  Biso   1.000  Zr
  Zr11     1.0000 0.87124  0.51204  0.61797  Biso   1.000  Zr
  Zr12     1.0000 0.37797  0.03990  0.37798  Biso   1.000  Zr
  Zr13     1.0000 0.36062  0.99095  0.88894  Biso   1.000  Zr
  Zr14     1.0000 0.88894  0.99094  0.36062  Biso   1.000  Zr
  Zr15     1.0000 0.87165  0.03979  0.87165  Biso   1.000  Zr
  O1       1.0000 0.97183  0.31623  0.97183  Biso   1.000  O
  O2       1.0000 0.99682  0.25092  0.47202  Biso   1.000  O
  O3       1.0000 0.47202  0.25092  0.99682  Biso   1.000  O
  O4       1.0000 0.49488  0.25338  0.49489  Biso   1.000  O
  O5       1.0000 0.04186  0.10793  0.20758  Biso   1.000  O
  O6       1.0000 0.00591  0.28003  0.72508  Biso   1.000  O
  O7       1.0000 0.52446  0.28003  0.24371  Biso   1.000  O
  O8       1.0000 0.50795  0.27839  0.74165  Biso   1.000  O
  O9       1.0000 0.96404  0.63788  0.28550  Biso   1.000  O
  O10      1.0000 0.99147  0.77326  0.77527  Biso   1.000  O
  O11      1.0000 0.47423  0.77327  0.25809  Biso   1.000  O
  O12      1.0000 0.48735  0.77437  0.76222  Biso   1.000  O
  O13      1.0000 0.04376  0.78793  0.04376  Biso   1.000  O
  O14      1.0000 0.01157  0.75473  0.52020  Biso   1.000  O
  O15      1.0000 0.52020  0.75473  0.01157  Biso   1.000  O
  O16      1.0000 0.51216  0.74838  0.51216  Biso   1.000  O
  O17      1.0000 0.27766  0.31608  0.27766  Biso   1.000  O
  O18      1.0000 0.25282  0.25102  0.77749  Biso   1.000  O
  O19      1.0000 0.77748  0.25101  0.25282  Biso   1.000  O
  O20      1.0000 0.75471  0.25324  0.75472  Biso   1.000  O
  O21      1.0000 0.20758  0.10794  0.04186  Biso   1.000  O
  O22      1.0000 0.24371  0.28004  0.52446  Biso   1.000  O
  O23      1.0000 0.72508  0.28002  0.00591  Biso   1.000  O
  O24      1.0000 0.74165  0.27841  0.50795  Biso   1.000  O
  O25      1.0000 0.28550  0.63789  0.96404  Biso   1.000  O
  O26      1.0000 0.25808  0.77328  0.47423  Biso   1.000  O
  O27      1.0000 0.77527  0.77324  0.99147  Biso   1.000  O
  O28      1.0000 0.76221  0.77439  0.48735  Biso   1.000  O
  O29      1.0000 0.20568  0.78784  0.20568  Biso   1.000  O
  O30      1.0000 0.23800  0.75481  0.72934  Biso   1.000  O
  O31      1.0000 0.72935  0.75481  0.23800  Biso   1.000  O
  O32      1.0000 0.73740  0.74824  0.73740  Biso   1.000  O
