data_image0
_cell_length_a       10.1684
_cell_length_b       10.3153
_cell_length_c       5.08098
_cell_angle_alpha    90.1082
_cell_angle_beta     88.3522
_cell_angle_gamma    89.18

_symmetry_space_group_name_H-M    "P 1"
_symmetry_int_tables_number       1

loop_
  _symmetry_equiv_pos_as_xyz
  'x, y, z'

loop_
  _atom_site_label
  _atom_site_occupancy
  _atom_site_fract_x
  _atom_site_fract_y
  _atom_site_fract_z
  _atom_site_thermal_displace_type
  _atom_site_B_iso_or_equiv
  _atom_site_type_symbol
  Zr1      1.0000 0.12698  0.99769  0.27553  Biso   1.000  Zr
  Zr2      1.0000 0.14156  0.23342  0.72804  Biso   1.000  Zr
  Zr3      1.0000 0.35023  0.26441  0.22102  Biso   1.000  Zr
  Zr4      1.0000 0.38764  0.99719  0.77772  Biso   1.000  Zr
  O1       1.0000 0.02829  0.17077  0.12784  Biso   1.000  O
  O2       1.0000 0.03364  0.07680  0.62283  Biso   1.000  O
  O3       1.0000 0.01296  0.32542  0.45210  Biso   1.000  O
  O4       1.0000 0.98188  0.39174  0.95022  Biso   1.000  O
  O5       1.0000 0.31293  0.15652  0.56077  Biso   1.000  O
  O6       1.0000 0.25389  0.10659  0.02534  Biso   1.000  O
  O7       1.0000 0.25133  0.37143  0.92517  Biso   1.000  O
  O8       1.0000 0.26540  0.41770  0.44397  Biso   1.000  O
  Zr5      1.0000 0.11294  0.47732  0.20244  Biso   1.000  Zr
  Zr6      1.0000 0.13166  0.76802  0.78829  Biso   1.000  Zr
  Zr7      1.0000 0.37478  0.74924  0.27846  Biso   1.000  Zr
  Zr8      1.0000 0.35711  0.51895  0.75037  Biso   1.000  Zr
  O9       1.0000 0.98467  0.65118  0.94122  Biso   1.000  O
  O10      1.0000 0.97897  0.58274  0.43086  Biso   1.000  O
  O11      1.0000 0.99639  0.84007  0.51330  Biso   1.000  O
  O12      1.0000 0.99862  0.90580  0.02675  Biso   1.000  O
  O13      1.0000 0.24748  0.66148  0.53735  Biso   1.000  O
  O14      1.0000 0.23747  0.61685  0.02693  Biso   1.000  O
  O15      1.0000 0.25336  0.86249  0.04006  Biso   1.000  O
  O16      1.0000 0.24570  0.90904  0.54199  Biso   1.000  O
  Zr9      1.0000 0.64049  0.00911  0.23075  Biso   1.000  Zr
  Zr10     1.0000 0.61204  0.24162  0.72809  Biso   1.000  Zr
  Zr11     1.0000 0.84693  0.26983  0.20310  Biso   1.000  Zr
  Zr12     1.0000 0.86791  0.98335  0.72400  Biso   1.000  Zr
  O17      1.0000 0.50557  0.14534  0.02908  Biso   1.000  O
  O18      1.0000 0.54666  0.06826  0.56514  Biso   1.000  O
  O19      1.0000 0.51691  0.32891  0.43644  Biso   1.000  O
  O20      1.0000 0.48866  0.39320  0.95594  Biso   1.000  O
  O21      1.0000 0.77245  0.14657  0.48548  Biso   1.000  O
  O22      1.0000 0.76641  0.11431  0.98435  Biso   1.000  O
  O23      1.0000 0.73285  0.36445  0.94391  Biso   1.000  O
  O24      1.0000 0.75883  0.40620  0.44503  Biso   1.000  O
  Zr13     1.0000 0.60386  0.48818  0.21801  Biso   1.000  Zr
  Zr14     1.0000 0.62101  0.75018  0.77463  Biso   1.000  Zr
  Zr15     1.0000 0.87463  0.74207  0.25171  Biso   1.000  Zr
  Zr16     1.0000 0.85845  0.51590  0.73685  Biso   1.000  Zr
  O25      1.0000 0.48801  0.64170  0.99573  Biso   1.000  O
  O26      1.0000 0.49526  0.59328  0.48485  Biso   1.000  O
  O27      1.0000 0.47969  0.83526  0.56555  Biso   1.000  O
  O28      1.0000 0.50577  0.89168  0.05674  Biso   1.000  O
  O29      1.0000 0.74759  0.65482  0.52808  Biso   1.000  O
  O30      1.0000 0.73999  0.60998  0.02345  Biso   1.000  O
  O31      1.0000 0.75441  0.85965  0.97708  Biso   1.000  O
  O32      1.0000 0.74978  0.89070  0.47020  Biso   1.000  O
  C1       1.0000 0.10477  0.25281  0.28778  Biso   1.000  C
