data_image0
_cell_length_a       10.0915
_cell_length_b       10.4575
_cell_length_c       10.1373
_cell_angle_alpha    89.6717
_cell_angle_beta     89.8593
_cell_angle_gamma    89.9424

_symmetry_space_group_name_H-M    "P 1"
_symmetry_int_tables_number       1

loop_
  _symmetry_equiv_pos_as_xyz
  'x, y, z'

loop_
  _atom_site_label
  _atom_site_occupancy
  _atom_site_fract_x
  _atom_site_fract_y
  _atom_site_fract_z
  _atom_site_thermal_displace_type
  _atom_site_B_iso_or_equiv
  _atom_site_type_symbol
  Zr1      1.0000 0.13116  0.00008  0.11970  Biso   1.000  Zr
  Zr2      1.0000 0.13254  0.22857  0.39148  Biso   1.000  Zr
  Zr3      1.0000 0.37806  0.26917  0.11681  Biso   1.000  Zr
  Zr4      1.0000 0.36592  0.48390  0.37361  Biso   1.000  Zr
  O1       1.0000 0.99137  0.15712  0.24072  Biso   1.000  O
  O2       1.0000 0.03587  0.06307  0.46086  Biso   1.000  O
  O3       1.0000 0.46546  0.43621  0.19545  Biso   1.000  O
  O4       1.0000 0.46824  0.32073  0.44899  Biso   1.000  O
  O5       1.0000 0.24883  0.11863  0.24208  Biso   1.000  O
  O6       1.0000 0.27477  0.13160  0.49743  Biso   1.000  O
  O7       1.0000 0.23306  0.38211  0.49948  Biso   1.000  O
  O8       1.0000 0.23137  0.36681  0.25175  Biso   1.000  O
  Zr5      1.0000 0.13706  0.00649  0.62595  Biso   1.000  Zr
  Zr6      1.0000 0.12927  0.23384  0.84898  Biso   1.000  Zr
  Zr7      1.0000 0.37351  0.26612  0.62355  Biso   1.000  Zr
  Zr8      1.0000 0.36877  0.48815  0.87202  Biso   1.000  Zr
  O9       1.0000 0.03415  0.17588  0.68663  Biso   1.000  O
  O10      1.0000 0.03062  0.06837  0.94957  Biso   1.000  O
  O11      1.0000 0.47022  0.43307  0.69454  Biso   1.000  O
  O12      1.0000 0.47017  0.32134  0.94008  Biso   1.000  O
  O13      1.0000 0.26950  0.11372  0.74321  Biso   1.000  O
  O14      1.0000 0.26259  0.14091  0.99241  Biso   1.000  O
  O15      1.0000 0.23681  0.39647  0.99690  Biso   1.000  O
  O16      1.0000 0.23860  0.36624  0.74502  Biso   1.000  O
  Zr9      1.0000 0.13707  0.53120  0.12571  Biso   1.000  Zr
  Zr10     1.0000 0.13477  0.73536  0.37721  Biso   1.000  Zr
  Zr11     1.0000 0.37030  0.76527  0.12230  Biso   1.000  Zr
  Zr12     1.0000 0.36562  0.98834  0.36920  Biso   1.000  Zr
  O17      1.0000 0.03042  0.68188  0.20310  Biso   1.000  O
  O18      1.0000 0.03476  0.56793  0.44715  Biso   1.000  O
  O19      1.0000 0.46052  0.93411  0.19295  Biso   1.000  O
  O20      1.0000 0.46867  0.82135  0.44427  Biso   1.000  O
  O21      1.0000 0.27390  0.62094  0.24826  Biso   1.000  O
  O22      1.0000 0.26982  0.63338  0.49792  Biso   1.000  O
  O23      1.0000 0.23554  0.88367  0.49510  Biso   1.000  O
  O24      1.0000 0.23144  0.86323  0.24583  Biso   1.000  O
  Zr13     1.0000 0.13489  0.51489  0.62369  Biso   1.000  Zr
  Zr14     1.0000 0.13142  0.73560  0.86968  Biso   1.000  Zr
  Zr15     1.0000 0.37153  0.76525  0.62155  Biso   1.000  Zr
  Zr16     1.0000 0.36801  0.98676  0.87339  Biso   1.000  Zr
  O25      1.0000 0.03452  0.67992  0.69385  Biso   1.000  O
  O26      1.0000 0.03245  0.57067  0.94846  Biso   1.000  O
  O27      1.0000 0.46999  0.93210  0.69720  Biso   1.000  O
  O28      1.0000 0.47084  0.82149  0.94616  Biso   1.000  O
  O29      1.0000 0.26898  0.61502  0.74578  Biso   1.000  O
  O30      1.0000 0.26767  0.64130  0.99541  Biso   1.000  O
  O31      1.0000 0.23501  0.88431  0.99398  Biso   1.000  O
  O32      1.0000 0.23746  0.86261  0.74617  Biso   1.000  O
  Zr17     1.0000 0.62944  0.01141  0.12240  Biso   1.000  Zr
  Zr18     1.0000 0.63004  0.23180  0.37691  Biso   1.000  Zr
  Zr19     1.0000 0.84400  0.26134  0.12763  Biso   1.000  Zr
  Zr20     1.0000 0.87049  0.48266  0.37076  Biso   1.000  Zr
  O33      1.0000 0.52564  0.17621  0.20664  Biso   1.000  O
  O34      1.0000 0.53100  0.06757  0.45068  Biso   1.000  O
  O35      1.0000 0.96978  0.42239  0.19198  Biso   1.000  O
  O36      1.0000 0.96958  0.32224  0.45481  Biso   1.000  O
  O37      1.0000 0.75062  0.11076  0.24846  Biso   1.000  O
  O38      1.0000 0.77007  0.13710  0.49534  Biso   1.000  O
  O39      1.0000 0.73548  0.38590  0.49856  Biso   1.000  O
  O40      1.0000 0.72378  0.36927  0.25201  Biso   1.000  O
  Zr21     1.0000 0.63709  0.01292  0.62177  Biso   1.000  Zr
  Zr22     1.0000 0.63538  0.23314  0.87182  Biso   1.000  Zr
  Zr23     1.0000 0.86324  0.26667  0.62392  Biso   1.000  Zr
  Zr24     1.0000 0.86847  0.48169  0.87717  Biso   1.000  Zr
  O41      1.0000 0.53775  0.18129  0.69624  Biso   1.000  O
  O42      1.0000 0.52877  0.07320  0.94989  Biso   1.000  O
  O43      1.0000 0.97493  0.42502  0.70581  Biso   1.000  O
  O44      1.0000 0.96454  0.31118  0.94681  Biso   1.000  O
  O45      1.0000 0.77221  0.11482  0.74543  Biso   1.000  O
  O46      1.0000 0.76654  0.12837  0.99561  Biso   1.000  O
  O47      1.0000 0.72696  0.38373  0.99736  Biso   1.000  O
  O48      1.0000 0.73342  0.36689  0.74792  Biso   1.000  O
  Zr25     1.0000 0.63277  0.51790  0.12511  Biso   1.000  Zr
  Zr26     1.0000 0.63604  0.73649  0.37501  Biso   1.000  Zr
  Zr27     1.0000 0.86264  0.76210  0.12451  Biso   1.000  Zr
  Zr28     1.0000 0.87625  0.99469  0.36396  Biso   1.000  Zr
  O49      1.0000 0.53759  0.68584  0.19524  Biso   1.000  O
  O50      1.0000 0.53429  0.56975  0.44516  Biso   1.000  O
  O51      1.0000 0.96413  0.92404  0.19338  Biso   1.000  O
  O52      1.0000 0.97034  0.82190  0.44691  Biso   1.000  O
  O53      1.0000 0.76979  0.61459  0.24681  Biso   1.000  O
  O54      1.0000 0.77096  0.63531  0.49585  Biso   1.000  O
  O55      1.0000 0.73682  0.88780  0.49441  Biso   1.000  O
  O56      1.0000 0.73076  0.86488  0.24556  Biso   1.000  O
  Zr29     1.0000 0.63646  0.51650  0.62235  Biso   1.000  Zr
  Zr30     1.0000 0.63553  0.73404  0.87291  Biso   1.000  Zr
  Zr31     1.0000 0.86794  0.76677  0.62087  Biso   1.000  Zr
  Zr32     1.0000 0.86702  0.98264  0.87552  Biso   1.000  Zr
  O57      1.0000 0.53650  0.68244  0.69557  Biso   1.000  O
  O58      1.0000 0.53222  0.57188  0.94828  Biso   1.000  O
  O59      1.0000 0.97309  0.92560  0.70472  Biso   1.000  O
  O60      1.0000 0.96960  0.81787  0.95149  Biso   1.000  O
  O61      1.0000 0.77188  0.61411  0.74682  Biso   1.000  O
  O62      1.0000 0.76854  0.63195  0.99637  Biso   1.000  O
  O63      1.0000 0.73134  0.88080  0.99643  Biso   1.000  O
  O64      1.0000 0.73411  0.86484  0.74560  Biso   1.000  O
  Ca1      1.0000 0.10841  0.26619  0.11076  Biso   1.000  Ca
