data_image0
_cell_length_a       10.2545
_cell_length_b       10.3413
_cell_length_c       10.5135
_cell_angle_alpha    90.0192
_cell_angle_beta     80.1333
_cell_angle_gamma    90.0713

_symmetry_space_group_name_H-M    "P 1"
_symmetry_int_tables_number       1

loop_
  _symmetry_equiv_pos_as_xyz
  'x, y, z'

loop_
  _atom_site_label
  _atom_site_occupancy
  _atom_site_fract_x
  _atom_site_fract_y
  _atom_site_fract_z
  _atom_site_thermal_displace_type
  _atom_site_B_iso_or_equiv
  _atom_site_type_symbol
  Ca1      1.0000 0.14016  0.01625  0.14576  Biso   1.000  Ca
  Zr1      1.0000 0.13961  0.02122  0.64567  Biso   1.000  Zr
  Zr2      1.0000 0.13982  0.52053  0.14447  Biso   1.000  Zr
  Zr3      1.0000 0.13980  0.52123  0.64592  Biso   1.000  Zr
  Zr4      1.0000 0.63958  0.02052  0.14594  Biso   1.000  Zr
  Zr5      1.0000 0.63946  0.02142  0.64559  Biso   1.000  Zr
  Zr6      1.0000 0.63798  0.51941  0.14521  Biso   1.000  Zr
  Zr7      1.0000 0.63880  0.52132  0.64496  Biso   1.000  Zr
  Zr8      1.0000 0.13999  0.22700  0.39468  Biso   1.000  Zr
  Zr9      1.0000 0.13923  0.22831  0.89774  Biso   1.000  Zr
  Zr10     1.0000 0.14135  0.72818  0.39462  Biso   1.000  Zr
  Zr11     1.0000 0.14142  0.73063  0.89587  Biso   1.000  Zr
  Zr12     1.0000 0.63840  0.22861  0.39547  Biso   1.000  Zr
  Zr13     1.0000 0.63921  0.22917  0.89589  Biso   1.000  Zr
  Zr14     1.0000 0.63729  0.72901  0.39530  Biso   1.000  Zr
  Zr15     1.0000 0.64005  0.72884  0.89518  Biso   1.000  Zr
  Zr16     1.0000 0.35790  0.26661  0.10519  Biso   1.000  Zr
  Zr17     1.0000 0.35974  0.27057  0.60492  Biso   1.000  Zr
  Zr18     1.0000 0.36131  0.77125  0.10385  Biso   1.000  Zr
  Zr19     1.0000 0.36052  0.77226  0.60434  Biso   1.000  Zr
  Zr20     1.0000 0.86166  0.27047  0.10291  Biso   1.000  Zr
  Zr21     1.0000 0.86045  0.27129  0.60392  Biso   1.000  Zr
  Zr22     1.0000 0.85882  0.77079  0.10550  Biso   1.000  Zr
  Zr23     1.0000 0.86119  0.77126  0.60369  Biso   1.000  Zr
  Zr24     1.0000 0.35971  0.47738  0.35342  Biso   1.000  Zr
  Zr25     1.0000 0.36119  0.47789  0.85502  Biso   1.000  Zr
  Zr26     1.0000 0.35916  0.97989  0.35334  Biso   1.000  Zr
  Zr27     1.0000 0.36039  0.97967  0.85591  Biso   1.000  Zr
  Zr28     1.0000 0.85988  0.47933  0.35411  Biso   1.000  Zr
  Zr29     1.0000 0.86036  0.47958  0.85377  Biso   1.000  Zr
  Zr30     1.0000 0.86100  0.97892  0.35353  Biso   1.000  Zr
  Zr31     1.0000 0.86085  0.97857  0.85484  Biso   1.000  Zr
  O1       1.0000 0.03340  0.17964  0.07692  Biso   1.000  O
  O2       1.0000 0.03488  0.17089  0.58369  Biso   1.000  O
  O3       1.0000 0.03472  0.66807  0.07943  Biso   1.000  O
  O4       1.0000 0.03458  0.66762  0.58046  Biso   1.000  O
  O5       1.0000 0.53505  0.16712  0.07903  Biso   1.000  O
  O6       1.0000 0.53261  0.16636  0.57965  Biso   1.000  O
  O7       1.0000 0.53409  0.66510  0.07799  Biso   1.000  O
  O8       1.0000 0.53305  0.66631  0.57927  Biso   1.000  O
  O9       1.0000 0.02743  0.08555  0.34298  Biso   1.000  O
  O10      1.0000 0.03435  0.08118  0.83073  Biso   1.000  O
  O11      1.0000 0.03348  0.58350  0.32905  Biso   1.000  O
  O12      1.0000 0.03452  0.58201  0.82963  Biso   1.000  O
  O13      1.0000 0.53478  0.08233  0.32990  Biso   1.000  O
  O14      1.0000 0.53595  0.08331  0.82842  Biso   1.000  O
  O15      1.0000 0.53231  0.58289  0.32854  Biso   1.000  O
  O16      1.0000 0.53380  0.58410  0.82798  Biso   1.000  O
  O17      1.0000 0.46557  0.41438  0.17163  Biso   1.000  O
  O18      1.0000 0.46640  0.41613  0.67116  Biso   1.000  O
  O19      1.0000 0.46734  0.91745  0.17000  Biso   1.000  O
  O20      1.0000 0.46684  0.91615  0.67186  Biso   1.000  O
  O21      1.0000 0.96328  0.42115  0.16913  Biso   1.000  O
  O22      1.0000 0.96527  0.41945  0.66829  Biso   1.000  O
  O23      1.0000 0.95141  0.91449  0.17447  Biso   1.000  O
  O24      1.0000 0.96547  0.91814  0.66972  Biso   1.000  O
  O25      1.0000 0.46551  0.33295  0.42171  Biso   1.000  O
  O26      1.0000 0.46826  0.33529  0.92136  Biso   1.000  O
  O27      1.0000 0.46540  0.83352  0.42257  Biso   1.000  O
  O28      1.0000 0.47295  0.83696  0.92166  Biso   1.000  O
  O29      1.0000 0.96565  0.33460  0.42043  Biso   1.000  O
  O30      1.0000 0.96435  0.33349  0.91579  Biso   1.000  O
  O31      1.0000 0.96699  0.83195  0.42043  Biso   1.000  O
  O32      1.0000 0.96585  0.83173  0.91944  Biso   1.000  O
  O33      1.0000 0.28367  0.13382  0.24869  Biso   1.000  O
  O34      1.0000 0.27473  0.12808  0.73987  Biso   1.000  O
  O35      1.0000 0.27565  0.62447  0.23936  Biso   1.000  O
  O36      1.0000 0.27557  0.62933  0.74079  Biso   1.000  O
  O37      1.0000 0.77442  0.12909  0.24099  Biso   1.000  O
  O38      1.0000 0.77632  0.12867  0.74048  Biso   1.000  O
  O39      1.0000 0.77359  0.62786  0.24066  Biso   1.000  O
  O40      1.0000 0.77526  0.62868  0.73922  Biso   1.000  O
  O41      1.0000 0.27432  0.12080  0.49355  Biso   1.000  O
  O42      1.0000 0.28407  0.12730  0.98301  Biso   1.000  O
  O43      1.0000 0.27539  0.62113  0.49049  Biso   1.000  O
  O44      1.0000 0.27605  0.61895  0.99043  Biso   1.000  O
  O45      1.0000 0.77274  0.12294  0.49195  Biso   1.000  O
  O46      1.0000 0.77537  0.12108  0.99014  Biso   1.000  O
  O47      1.0000 0.77470  0.62198  0.49015  Biso   1.000  O
  O48      1.0000 0.77424  0.62002  0.98960  Biso   1.000  O
  O49      1.0000 0.22502  0.37886  0.00890  Biso   1.000  O
  O50      1.0000 0.22476  0.37876  0.50953  Biso   1.000  O
  O51      1.0000 0.23423  0.86953  0.00037  Biso   1.000  O
  O52      1.0000 0.22397  0.87857  0.51020  Biso   1.000  O
  O53      1.0000 0.72408  0.37867  0.00851  Biso   1.000  O
  O54      1.0000 0.72408  0.37923  0.50917  Biso   1.000  O
  O55      1.0000 0.72534  0.87823  0.00872  Biso   1.000  O
  O56      1.0000 0.72542  0.87849  0.50935  Biso   1.000  O
  O57      1.0000 0.22175  0.37211  0.25865  Biso   1.000  O
  O58      1.0000 0.22513  0.37201  0.75931  Biso   1.000  O
  O59      1.0000 0.23351  0.86294  0.26293  Biso   1.000  O
  O60      1.0000 0.22440  0.87249  0.75726  Biso   1.000  O
  O61      1.0000 0.72384  0.37170  0.26008  Biso   1.000  O
  O62      1.0000 0.72487  0.37153  0.75829  Biso   1.000  O
  O63      1.0000 0.71566  0.87010  0.26089  Biso   1.000  O
  O64      1.0000 0.72606  0.87136  0.75858  Biso   1.000  O
