data_image0
_cell_length_a       10.2664
_cell_length_b       10.3973
_cell_length_c       5.34297
_cell_angle_alpha    89.868
_cell_angle_beta     78.92
_cell_angle_gamma    90.2664

_symmetry_space_group_name_H-M    "P 1"
_symmetry_int_tables_number       1

loop_
  _symmetry_equiv_pos_as_xyz
  'x, y, z'

loop_
  _atom_site_label
  _atom_site_occupancy
  _atom_site_fract_x
  _atom_site_fract_y
  _atom_site_fract_z
  _atom_site_thermal_displace_type
  _atom_site_B_iso_or_equiv
  _atom_site_type_symbol
  Zr1      1.0000 0.13685  0.02181  0.28852  Biso   1.000  Zr
  Zr2      1.0000 0.12889  0.22807  0.77949  Biso   1.000  Zr
  Zr3      1.0000 0.34346  0.28113  0.16156  Biso   1.000  Zr
  Zr4      1.0000 0.35557  0.49358  0.70753  Biso   1.000  Zr
  O1       1.0000 0.03806  0.16806  0.15163  Biso   1.000  O
  O2       1.0000 0.02913  0.08356  0.64961  Biso   1.000  O
  O3       1.0000 0.46417  0.41900  0.35271  Biso   1.000  O
  O4       1.0000 0.47393  0.35530  0.86404  Biso   1.000  O
  O5       1.0000 0.27323  0.12520  0.45871  Biso   1.000  O
  O6       1.0000 0.28280  0.12901  0.94268  Biso   1.000  O
  O7       1.0000 0.20831  0.38848  0.00024  Biso   1.000  O
  O8       1.0000 0.22891  0.36735  0.51062  Biso   1.000  O
  Zr5      1.0000 0.13544  0.52408  0.29476  Biso   1.000  Zr
  Zr6      1.0000 0.13302  0.72893  0.79560  Biso   1.000  Zr
  Zr7      1.0000 0.35938  0.77209  0.21038  Biso   1.000  Zr
  Zr8      1.0000 0.35913  0.96695  0.70730  Biso   1.000  Zr
  O9       1.0000 0.02868  0.66391  0.15747  Biso   1.000  O
  O10      1.0000 0.03023  0.58469  0.65817  Biso   1.000  O
  O11      1.0000 0.46683  0.91274  0.35149  Biso   1.000  O
  O12      1.0000 0.46528  0.83136  0.85347  Biso   1.000  O
  O13      1.0000 0.27196  0.62907  0.48280  Biso   1.000  O
  O14      1.0000 0.27080  0.62957  0.98637  Biso   1.000  O
  O15      1.0000 0.22231  0.88067  0.02228  Biso   1.000  O
  O16      1.0000 0.21995  0.86846  0.51873  Biso   1.000  O
  Zr9      1.0000 0.64136  0.01706  0.30250  Biso   1.000  Zr
  Zr10     1.0000 0.65111  0.22582  0.83150  Biso   1.000  Zr
  Zr11     1.0000 0.86148  0.27136  0.22593  Biso   1.000  Zr
  Zr12     1.0000 0.85750  0.47822  0.71703  Biso   1.000  Zr
  O17      1.0000 0.53149  0.16749  0.17090  Biso   1.000  O
  O18      1.0000 0.54247  0.07100  0.67638  Biso   1.000  O
  O19      1.0000 0.96616  0.41384  0.35691  Biso   1.000  O
  O20      1.0000 0.95901  0.33163  0.84908  Biso   1.000  O
  O21      1.0000 0.77789  0.12778  0.49594  Biso   1.000  O
  O22      1.0000 0.78413  0.11692  0.00430  Biso   1.000  O
  O23      1.0000 0.72553  0.37822  0.04062  Biso   1.000  O
  O24      1.0000 0.72091  0.36891  0.53705  Biso   1.000  O
  Zr13     1.0000 0.63588  0.52320  0.29984  Biso   1.000  Zr
  Zr14     1.0000 0.63803  0.72719  0.80008  Biso   1.000  Zr
  Zr15     1.0000 0.85908  0.77141  0.21611  Biso   1.000  Zr
  Zr16     1.0000 0.85757  0.97618  0.71440  Biso   1.000  Zr
  O25      1.0000 0.53022  0.66402  0.15763  Biso   1.000  O
  O26      1.0000 0.52977  0.59214  0.65246  Biso   1.000  O
  O27      1.0000 0.96500  0.91314  0.35336  Biso   1.000  O
  O28      1.0000 0.96484  0.83580  0.85462  Biso   1.000  O
  O29      1.0000 0.77429  0.62689  0.48758  Biso   1.000  O
  O30      1.0000 0.77289  0.62060  0.98643  Biso   1.000  O
  O31      1.0000 0.72263  0.87495  0.02786  Biso   1.000  O
  O32      1.0000 0.72317  0.86965  0.52596  Biso   1.000  O
  Ca1      1.0000 0.44259  0.23361  0.55935  Biso   1.000  Ca
