data_image0
_cell_length_a       10.1037
_cell_length_b       10.2199
_cell_length_c       5.03879
_cell_angle_alpha    89.9967
_cell_angle_beta     90.7379
_cell_angle_gamma    89.9942

_symmetry_space_group_name_H-M    "P 1"
_symmetry_int_tables_number       1

loop_
  _symmetry_equiv_pos_as_xyz
  'x, y, z'

loop_
  _atom_site_label
  _atom_site_occupancy
  _atom_site_fract_x
  _atom_site_fract_y
  _atom_site_fract_z
  _atom_site_thermal_displace_type
  _atom_site_B_iso_or_equiv
  _atom_site_type_symbol
  Cd1      1.0000 0.12494  0.01373  0.25179  Biso   1.000  Cd
  Zr1      1.0000 0.12495  0.49701  0.25178  Biso   1.000  Zr
  Zr2      1.0000 0.62494  0.00003  0.25179  Biso   1.000  Zr
  Zr3      1.0000 0.62494  0.50093  0.25180  Biso   1.000  Zr
  Zr4      1.0000 0.12496  0.25300  0.75182  Biso   1.000  Zr
  Zr5      1.0000 0.12494  0.74831  0.75181  Biso   1.000  Zr
  Zr6      1.0000 0.62496  0.25004  0.75185  Biso   1.000  Zr
  Zr7      1.0000 0.62495  0.75089  0.75183  Biso   1.000  Zr
  Zr8      1.0000 0.37963  0.24970  0.24089  Biso   1.000  Zr
  Zr9      1.0000 0.37269  0.74869  0.24505  Biso   1.000  Zr
  Zr10     1.0000 0.87027  0.24970  0.26281  Biso   1.000  Zr
  Zr11     1.0000 0.87721  0.74868  0.25857  Biso   1.000  Zr
  Zr12     1.0000 0.37448  0.99601  0.74121  Biso   1.000  Zr
  Zr13     1.0000 0.37562  0.50219  0.75236  Biso   1.000  Zr
  Zr14     1.0000 0.87539  0.99601  0.76236  Biso   1.000  Zr
  Zr15     1.0000 0.87428  0.50219  0.75123  Biso   1.000  Zr
  O1       1.0000 0.99986  0.14588  0.01418  Biso   1.000  O
  O2       1.0000 0.99810  0.64350  0.00290  Biso   1.000  O
  O3       1.0000 0.50363  0.14534  0.99966  Biso   1.000  O
  O4       1.0000 0.49961  0.64514  0.00009  Biso   1.000  O
  O5       1.0000 0.99271  0.11478  0.53256  Biso   1.000  O
  O6       1.0000 0.00176  0.60365  0.50215  Biso   1.000  O
  O7       1.0000 0.49870  0.10421  0.49660  Biso   1.000  O
  O8       1.0000 0.50115  0.60342  0.50209  Biso   1.000  O
  O9       1.0000 0.00105  0.35797  0.48927  Biso   1.000  O
  O10      1.0000 0.98532  0.85025  0.53886  Biso   1.000  O
  O11      1.0000 0.50011  0.35485  0.50151  Biso   1.000  O
  O12      1.0000 0.49696  0.85265  0.49576  Biso   1.000  O
  O13      1.0000 0.00162  0.39379  0.98886  Biso   1.000  O
  O14      1.0000 0.00251  0.88921  0.02074  Biso   1.000  O
  O15      1.0000 0.49950  0.39481  0.00208  Biso   1.000  O
  O16      1.0000 0.50638  0.89631  0.99193  Biso   1.000  O
  O17      1.0000 0.25003  0.14589  0.48948  Biso   1.000  O
  O18      1.0000 0.25180  0.64351  0.50072  Biso   1.000  O
  O19      1.0000 0.74626  0.14533  0.50397  Biso   1.000  O
  O20      1.0000 0.75029  0.64513  0.50353  Biso   1.000  O
  O21      1.0000 0.25720  0.11478  0.97113  Biso   1.000  O
  O22      1.0000 0.24815  0.60365  0.00148  Biso   1.000  O
  O23      1.0000 0.75118  0.10422  0.00704  Biso   1.000  O
  O24      1.0000 0.74875  0.60342  0.00154  Biso   1.000  O
  O25      1.0000 0.24886  0.35797  0.01431  Biso   1.000  O
  O26      1.0000 0.26456  0.85025  0.96472  Biso   1.000  O
  O27      1.0000 0.74979  0.35485  0.00212  Biso   1.000  O
  O28      1.0000 0.75291  0.85265  0.00787  Biso   1.000  O
  O29      1.0000 0.24829  0.39380  0.51474  Biso   1.000  O
  O30      1.0000 0.24735  0.88922  0.48286  Biso   1.000  O
  O31      1.0000 0.75041  0.39480  0.50157  Biso   1.000  O
  O32      1.0000 0.74349  0.89631  0.51172  Biso   1.000  O
