data_image0
_cell_length_a       5.12535
_cell_length_b       10.4343
_cell_length_c       10.7307
_cell_angle_alpha    89.957
_cell_angle_beta     78.6287
_cell_angle_gamma    91.1891

_symmetry_space_group_name_H-M    "P 1"
_symmetry_int_tables_number       1

loop_
  _symmetry_equiv_pos_as_xyz
  'x, y, z'

loop_
  _atom_site_label
  _atom_site_occupancy
  _atom_site_fract_x
  _atom_site_fract_y
  _atom_site_fract_z
  _atom_site_thermal_displace_type
  _atom_site_B_iso_or_equiv
  _atom_site_type_symbol
  Zr1      1.0000 0.29231  0.01348  0.15122  Biso   1.000  Zr
  Zr2      1.0000 0.32179  0.23044  0.41965  Biso   1.000  Zr
  Zr3      1.0000 0.66693  0.26957  0.08545  Biso   1.000  Zr
  Zr4      1.0000 0.69634  0.48654  0.35387  Biso   1.000  Zr
  O1       1.0000 0.02907  0.15401  0.06346  Biso   1.000  O
  O2       1.0000 0.09709  0.06700  0.34274  Biso   1.000  O
  O3       1.0000 0.89159  0.43300  0.16235  Biso   1.000  O
  O4       1.0000 0.95962  0.34599  0.44166  Biso   1.000  O
  O5       1.0000 0.58680  0.12884  0.24775  Biso   1.000  O
  O6       1.0000 0.58721  0.11740  0.49816  Biso   1.000  O
  O7       1.0000 0.40149  0.38260  0.00694  Biso   1.000  O
  O8       1.0000 0.40188  0.37118  0.25736  Biso   1.000  O
  Zr5      1.0000 0.28241  0.01869  0.64847  Biso   1.000  Zr
  Zr6      1.0000 0.25327  0.22504  0.89156  Biso   1.000  Zr
  Zr7      1.0000 0.73543  0.27496  0.61354  Biso   1.000  Zr
  Zr8      1.0000 0.70627  0.48131  0.85663  Biso   1.000  Zr
  O9       1.0000 0.08471  0.16909  0.59051  Biso   1.000  O
  O10      1.0000 0.05640  0.08084  0.82405  Biso   1.000  O
  O11      1.0000 0.93229  0.41916  0.68105  Biso   1.000  O
  O12      1.0000 0.90399  0.33092  0.91459  Biso   1.000  O
  O13      1.0000 0.54623  0.12828  0.74420  Biso   1.000  O
  O14      1.0000 0.52371  0.11755  0.98672  Biso   1.000  O
  O15      1.0000 0.46500  0.38245  0.51838  Biso   1.000  O
  O16      1.0000 0.44247  0.37172  0.76091  Biso   1.000  O
  Zr9      1.0000 0.26655  0.52799  0.14733  Biso   1.000  Zr
  Zr10     1.0000 0.26704  0.72710  0.39975  Biso   1.000  Zr
  Zr11     1.0000 0.72161  0.77290  0.10535  Biso   1.000  Zr
  Zr12     1.0000 0.72212  0.97202  0.35776  Biso   1.000  Zr
  O17      1.0000 0.06167  0.67116  0.07876  Biso   1.000  O
  O18      1.0000 0.05231  0.58560  0.32748  Biso   1.000  O
  O19      1.0000 0.93635  0.91441  0.17761  Biso   1.000  O
  O20      1.0000 0.92699  0.82885  0.42634  Biso   1.000  O
  O21      1.0000 0.54052  0.63206  0.24536  Biso   1.000  O
  O22      1.0000 0.53634  0.62428  0.49394  Biso   1.000  O
  O23      1.0000 0.45232  0.87573  0.01116  Biso   1.000  O
  O24      1.0000 0.44814  0.86795  0.25974  Biso   1.000  O
  Zr13     1.0000 0.27457  0.52452  0.65027  Biso   1.000  Zr
  Zr14     1.0000 0.26933  0.72870  0.89891  Biso   1.000  Zr
  Zr15     1.0000 0.71935  0.77130  0.60619  Biso   1.000  Zr
  Zr16     1.0000 0.71411  0.97549  0.85483  Biso   1.000  Zr
  O25      1.0000 0.05534  0.66324  0.58040  Biso   1.000  O
  O26      1.0000 0.05842  0.58658  0.83063  Biso   1.000  O
  O27      1.0000 0.93026  0.91342  0.67447  Biso   1.000  O
  O28      1.0000 0.93333  0.83676  0.92470  Biso   1.000  O
  O29      1.0000 0.54608  0.62903  0.74352  Biso   1.000  O
  O30      1.0000 0.54485  0.62315  0.99307  Biso   1.000  O
  O31      1.0000 0.44382  0.87685  0.51203  Biso   1.000  O
  O32      1.0000 0.44260  0.87097  0.76158  Biso   1.000  O
  Ce1      1.0000 0.99434  0.25001  0.25256  Biso   1.000  Ce
