data_image0
_cell_length_a       5.04322
_cell_length_b       10.4549
_cell_length_c       10.1193
_cell_angle_alpha    90.2882
_cell_angle_beta     90.3573
_cell_angle_gamma    90.0067

_symmetry_space_group_name_H-M    "P 1"
_symmetry_int_tables_number       1

loop_
  _symmetry_equiv_pos_as_xyz
  'x, y, z'

loop_
  _atom_site_label
  _atom_site_occupancy
  _atom_site_fract_x
  _atom_site_fract_y
  _atom_site_fract_z
  _atom_site_thermal_displace_type
  _atom_site_B_iso_or_equiv
  _atom_site_type_symbol
  Ce1      1.0000 0.25261  0.00865  0.11824  Biso   1.000  Ce
  Zr1      1.0000 0.26624  0.01662  0.62465  Biso   1.000  Zr
  Zr2      1.0000 0.26386  0.51447  0.12508  Biso   1.000  Zr
  Zr3      1.0000 0.26739  0.51562  0.62528  Biso   1.000  Zr
  Zr4      1.0000 0.26650  0.23415  0.37537  Biso   1.000  Zr
  Zr5      1.0000 0.26932  0.23878  0.87072  Biso   1.000  Zr
  Zr6      1.0000 0.26381  0.73284  0.37785  Biso   1.000  Zr
  Zr7      1.0000 0.27206  0.73330  0.87501  Biso   1.000  Zr
  Zr8      1.0000 0.72625  0.26702  0.12595  Biso   1.000  Zr
  Zr9      1.0000 0.73438  0.26647  0.62300  Biso   1.000  Zr
  Zr10     1.0000 0.73234  0.76115  0.12763  Biso   1.000  Zr
  Zr11     1.0000 0.73297  0.76463  0.62426  Biso   1.000  Zr
  Zr12     1.0000 0.73031  0.48387  0.37506  Biso   1.000  Zr
  Zr13     1.0000 0.73516  0.48386  0.87572  Biso   1.000  Zr
  Zr14     1.0000 0.72530  0.98412  0.37854  Biso   1.000  Zr
  Zr15     1.0000 0.73365  0.98412  0.86992  Biso   1.000  Zr
  O1       1.0000 0.06197  0.18731  0.19707  Biso   1.000  O
  O2       1.0000 0.07560  0.18678  0.68783  Biso   1.000  O
  O3       1.0000 0.06920  0.68193  0.19801  Biso   1.000  O
  O4       1.0000 0.06946  0.68329  0.69709  Biso   1.000  O
  O5       1.0000 0.06870  0.06591  0.44349  Biso   1.000  O
  O6       1.0000 0.06981  0.07391  0.92675  Biso   1.000  O
  O7       1.0000 0.06585  0.56628  0.44762  Biso   1.000  O
  O8       1.0000 0.06758  0.57062  0.94661  Biso   1.000  O
  O9       1.0000 0.92564  0.43476  0.19515  Biso   1.000  O
  O10      1.0000 0.93507  0.43307  0.69721  Biso   1.000  O
  O11      1.0000 0.90613  0.93028  0.20252  Biso   1.000  O
  O12      1.0000 0.93073  0.93251  0.69423  Biso   1.000  O
  O13      1.0000 0.92758  0.31721  0.44422  Biso   1.000  O
  O14      1.0000 0.93510  0.31979  0.94658  Biso   1.000  O
  O15      1.0000 0.92908  0.81629  0.44805  Biso   1.000  O
  O16      1.0000 0.96177  0.82740  0.95783  Biso   1.000  O
  O17      1.0000 0.54411  0.12141  0.25216  Biso   1.000  O
  O18      1.0000 0.54122  0.11774  0.74605  Biso   1.000  O
  O19      1.0000 0.53472  0.61376  0.24875  Biso   1.000  O
  O20      1.0000 0.54070  0.61633  0.74827  Biso   1.000  O
  O21      1.0000 0.53471  0.13324  0.49966  Biso   1.000  O
  O22      1.0000 0.54540  0.13536  0.99332  Biso   1.000  O
  O23      1.0000 0.53623  0.63274  0.49882  Biso   1.000  O
  O24      1.0000 0.54008  0.63126  0.99844  Biso   1.000  O
  O25      1.0000 0.46085  0.38365  0.49802  Biso   1.000  O
  O26      1.0000 0.46210  0.38432  0.99751  Biso   1.000  O
  O27      1.0000 0.45874  0.88291  0.50036  Biso   1.000  O
  O28      1.0000 0.48766  0.87553  0.99323  Biso   1.000  O
  O29      1.0000 0.45537  0.36731  0.24810  Biso   1.000  O
  O30      1.0000 0.46682  0.36811  0.74681  Biso   1.000  O
  O31      1.0000 0.46333  0.85833  0.25318  Biso   1.000  O
  O32      1.0000 0.46345  0.86666  0.74754  Biso   1.000  O
