data_image0
_cell_length_a       10.0667
_cell_length_b       5.2423
_cell_length_c       10.1059
_cell_angle_alpha    89.7297
_cell_angle_beta     90.1915
_cell_angle_gamma    90.0259

_symmetry_space_group_name_H-M    "P 1"
_symmetry_int_tables_number       1

loop_
  _symmetry_equiv_pos_as_xyz
  'x, y, z'

loop_
  _atom_site_label
  _atom_site_occupancy
  _atom_site_fract_x
  _atom_site_fract_y
  _atom_site_fract_z
  _atom_site_thermal_displace_type
  _atom_site_B_iso_or_equiv
  _atom_site_type_symbol
  Zr1      1.0000 0.13490  0.07349  0.12038  Biso   1.000  Zr
  Zr2      1.0000 0.13617  0.46734  0.38357  Biso   1.000  Zr
  Zr3      1.0000 0.36428  0.53104  0.12335  Biso   1.000  Zr
  Zr4      1.0000 0.36653  0.96841  0.37458  Biso   1.000  Zr
  O1       1.0000 0.01946  0.35686  0.21396  Biso   1.000  O
  O2       1.0000 0.03504  0.13343  0.45013  Biso   1.000  O
  O3       1.0000 0.46141  0.86600  0.19409  Biso   1.000  O
  O4       1.0000 0.46465  0.63100  0.44353  Biso   1.000  O
  O5       1.0000 0.27082  0.24387  0.25242  Biso   1.000  O
  O6       1.0000 0.27113  0.26301  0.50054  Biso   1.000  O
  O7       1.0000 0.23300  0.76587  0.49940  Biso   1.000  O
  O8       1.0000 0.22525  0.73750  0.24827  Biso   1.000  O
  Zr5      1.0000 0.13447  0.02594  0.62692  Biso   1.000  Zr
  Zr6      1.0000 0.14075  0.45900  0.87127  Biso   1.000  Zr
  Zr7      1.0000 0.37011  0.52823  0.62444  Biso   1.000  Zr
  Zr8      1.0000 0.37086  0.96034  0.87301  Biso   1.000  Zr
  O9       1.0000 0.03666  0.36089  0.69335  Biso   1.000  O
  O10      1.0000 0.03747  0.13150  0.94070  Biso   1.000  O
  O11      1.0000 0.46966  0.86176  0.69297  Biso   1.000  O
  O12      1.0000 0.46783  0.62908  0.94401  Biso   1.000  O
  O13      1.0000 0.27205  0.22655  0.74655  Biso   1.000  O
  O14      1.0000 0.28505  0.25156  0.99179  Biso   1.000  O
  O15      1.0000 0.23065  0.76541  0.99865  Biso   1.000  O
  O16      1.0000 0.23629  0.72813  0.74750  Biso   1.000  O
  Zr9      1.0000 0.63000  0.02944  0.12491  Biso   1.000  Zr
  Zr10     1.0000 0.63211  0.46388  0.37600  Biso   1.000  Zr
  Zr11     1.0000 0.85118  0.52932  0.12689  Biso   1.000  Zr
  Zr12     1.0000 0.86863  0.96845  0.37409  Biso   1.000  Zr
  O17      1.0000 0.53405  0.36227  0.19440  Biso   1.000  O
  O18      1.0000 0.53435  0.12999  0.44572  Biso   1.000  O
  O19      1.0000 0.96235  0.86843  0.19342  Biso   1.000  O
  O20      1.0000 0.96810  0.63855  0.44888  Biso   1.000  O
  O21      1.0000 0.76369  0.22918  0.25001  Biso   1.000  O
  O22      1.0000 0.77001  0.26622  0.49834  Biso   1.000  O
  O23      1.0000 0.73302  0.76569  0.49853  Biso   1.000  O
  O24      1.0000 0.72538  0.73499  0.25068  Biso   1.000  O
  Zr13     1.0000 0.63779  0.02731  0.62476  Biso   1.000  Zr
  Zr14     1.0000 0.63462  0.46259  0.87326  Biso   1.000  Zr
  Zr15     1.0000 0.86823  0.52837  0.62531  Biso   1.000  Zr
  Zr16     1.0000 0.86755  0.96164  0.87666  Biso   1.000  Zr
  O25      1.0000 0.53858  0.36302  0.69300  Biso   1.000  O
  O26      1.0000 0.54036  0.12614  0.94056  Biso   1.000  O
  O27      1.0000 0.96900  0.85719  0.70110  Biso   1.000  O
  O28      1.0000 0.96927  0.62928  0.95299  Biso   1.000  O
  O29      1.0000 0.77278  0.22804  0.74883  Biso   1.000  O
  O30      1.0000 0.76988  0.26025  0.99868  Biso   1.000  O
  O31      1.0000 0.72864  0.76070  0.99877  Biso   1.000  O
  O32      1.0000 0.73407  0.72870  0.74909  Biso   1.000  O
  Co1      1.0000 0.09582  0.61235  0.10750  Biso   1.000  Co
