data_image0
_cell_length_a       10.0646
_cell_length_b       10.4972
_cell_length_c       5.05273
_cell_angle_alpha    89.6755
_cell_angle_beta     90.2192
_cell_angle_gamma    90.0575

_symmetry_space_group_name_H-M    "P 1"
_symmetry_int_tables_number       1

loop_
  _symmetry_equiv_pos_as_xyz
  'x, y, z'

loop_
  _atom_site_label
  _atom_site_occupancy
  _atom_site_fract_x
  _atom_site_fract_y
  _atom_site_fract_z
  _atom_site_thermal_displace_type
  _atom_site_B_iso_or_equiv
  _atom_site_type_symbol
  Zr1      1.0000 0.13532  0.01787  0.24668  Biso   1.000  Zr
  Zr2      1.0000 0.14060  0.22461  0.75615  Biso   1.000  Zr
  Zr3      1.0000 0.36580  0.26354  0.24513  Biso   1.000  Zr
  Zr4      1.0000 0.36792  0.48359  0.74810  Biso   1.000  Zr
  O1       1.0000 0.02088  0.17261  0.41945  Biso   1.000  O
  O2       1.0000 0.03688  0.06243  0.89472  Biso   1.000  O
  O3       1.0000 0.46428  0.43247  0.38898  Biso   1.000  O
  O4       1.0000 0.46459  0.31536  0.88552  Biso   1.000  O
  O5       1.0000 0.27027  0.11452  0.49457  Biso   1.000  O
  O6       1.0000 0.28499  0.12274  0.98624  Biso   1.000  O
  O7       1.0000 0.23157  0.38491  0.00093  Biso   1.000  O
  O8       1.0000 0.22912  0.36617  0.49600  Biso   1.000  O
  Zr5      1.0000 0.13516  0.53072  0.24944  Biso   1.000  Zr
  Zr6      1.0000 0.13507  0.73858  0.75125  Biso   1.000  Zr
  Zr7      1.0000 0.36855  0.76608  0.25020  Biso   1.000  Zr
  Zr8      1.0000 0.36899  0.97990  0.74773  Biso   1.000  Zr
  O9       1.0000 0.03388  0.68632  0.39731  Biso   1.000  O
  O10      1.0000 0.03487  0.57099  0.89277  Biso   1.000  O
  O11      1.0000 0.46702  0.93132  0.38480  Biso   1.000  O
  O12      1.0000 0.46780  0.81461  0.88895  Biso   1.000  O
  O13      1.0000 0.27316  0.62076  0.50087  Biso   1.000  O
  O14      1.0000 0.27125  0.63564  0.99581  Biso   1.000  O
  O15      1.0000 0.23175  0.88143  0.99781  Biso   1.000  O
  O16      1.0000 0.23309  0.86694  0.49570  Biso   1.000  O
  Zr9      1.0000 0.63382  0.01320  0.24578  Biso   1.000  Zr
  Zr10     1.0000 0.63060  0.23084  0.74780  Biso   1.000  Zr
  Zr11     1.0000 0.85279  0.26357  0.25374  Biso   1.000  Zr
  Zr12     1.0000 0.86862  0.48256  0.75416  Biso   1.000  Zr
  O17      1.0000 0.53541  0.18084  0.38522  Biso   1.000  O
  O18      1.0000 0.53956  0.06281  0.88267  Biso   1.000  O
  O19      1.0000 0.96558  0.43191  0.39847  Biso   1.000  O
  O20      1.0000 0.97134  0.31695  0.91079  Biso   1.000  O
  O21      1.0000 0.76532  0.11351  0.49696  Biso   1.000  O
  O22      1.0000 0.77028  0.13195  0.99376  Biso   1.000  O
  O23      1.0000 0.72917  0.38153  0.99889  Biso   1.000  O
  O24      1.0000 0.72796  0.36692  0.50275  Biso   1.000  O
  Zr13     1.0000 0.63376  0.51529  0.25240  Biso   1.000  Zr
  Zr14     1.0000 0.63586  0.73221  0.74963  Biso   1.000  Zr
  Zr15     1.0000 0.86558  0.76601  0.25015  Biso   1.000  Zr
  Zr16     1.0000 0.86794  0.98274  0.74639  Biso   1.000  Zr
  O25      1.0000 0.53736  0.68194  0.38855  Biso   1.000  O
  O26      1.0000 0.53508  0.56523  0.88874  Biso   1.000  O
  O27      1.0000 0.96712  0.93060  0.39280  Biso   1.000  O
  O28      1.0000 0.96566  0.81665  0.89315  Biso   1.000  O
  O29      1.0000 0.77071  0.61493  0.49993  Biso   1.000  O
  O30      1.0000 0.76935  0.63176  0.99947  Biso   1.000  O
  O31      1.0000 0.73262  0.88219  0.99518  Biso   1.000  O
  O32      1.0000 0.73175  0.86486  0.49612  Biso   1.000  O
  Co1      1.0000 0.09789  0.30399  0.21691  Biso   1.000  Co
