data_image0
_cell_length_a       10.1252
_cell_length_b       10.0782
_cell_length_c       5.0256
_cell_angle_alpha    89.9986
_cell_angle_beta     90.0001
_cell_angle_gamma    90.0056

_symmetry_space_group_name_H-M    "P 1"
_symmetry_int_tables_number       1

loop_
  _symmetry_equiv_pos_as_xyz
  'x, y, z'

loop_
  _atom_site_label
  _atom_site_occupancy
  _atom_site_fract_x
  _atom_site_fract_y
  _atom_site_fract_z
  _atom_site_thermal_displace_type
  _atom_site_B_iso_or_equiv
  _atom_site_type_symbol
  Cr1      1.0000 0.12535  0.00007  0.25073  Biso   1.000  Cr
  Zr1      1.0000 0.12541  0.50011  0.25068  Biso   1.000  Zr
  Zr2      1.0000 0.62541  0.00011  0.25065  Biso   1.000  Zr
  Zr3      1.0000 0.62539  0.50010  0.25064  Biso   1.000  Zr
  Zr4      1.0000 0.12539  0.24954  0.75069  Biso   1.000  Zr
  Zr5      1.0000 0.12541  0.75068  0.75061  Biso   1.000  Zr
  Zr6      1.0000 0.62539  0.25151  0.75064  Biso   1.000  Zr
  Zr7      1.0000 0.62541  0.74870  0.75063  Biso   1.000  Zr
  Zr8      1.0000 0.37453  0.24914  0.26008  Biso   1.000  Zr
  Zr9      1.0000 0.37458  0.75102  0.24120  Biso   1.000  Zr
  Zr10     1.0000 0.87624  0.24920  0.24121  Biso   1.000  Zr
  Zr11     1.0000 0.87624  0.75103  0.26003  Biso   1.000  Zr
  Zr12     1.0000 0.37611  0.00009  0.75064  Biso   1.000  Zr
  Zr13     1.0000 0.37525  0.50009  0.75065  Biso   1.000  Zr
  Zr14     1.0000 0.87472  0.00011  0.75060  Biso   1.000  Zr
  Zr15     1.0000 0.87555  0.50011  0.75064  Biso   1.000  Zr
  O1       1.0000 0.97518  0.14795  0.94754  Biso   1.000  O
  O2       1.0000 0.98620  0.64422  0.98717  Biso   1.000  O
  O3       1.0000 0.47869  0.13401  0.99242  Biso   1.000  O
  O4       1.0000 0.48644  0.63388  0.99216  Biso   1.000  O
  O5       1.0000 0.02636  0.10298  0.45821  Biso   1.000  O
  O6       1.0000 0.01285  0.60972  0.49634  Biso   1.000  O
  O7       1.0000 0.51983  0.11775  0.49809  Biso   1.000  O
  O8       1.0000 0.51398  0.61667  0.49853  Biso   1.000  O
  O9       1.0000 0.98618  0.35602  0.51411  Biso   1.000  O
  O10      1.0000 0.97527  0.85232  0.55362  Biso   1.000  O
  O11      1.0000 0.48642  0.36631  0.50910  Biso   1.000  O
  O12      1.0000 0.47872  0.86617  0.50891  Biso   1.000  O
  O13      1.0000 0.01285  0.39052  0.00494  Biso   1.000  O
  O14      1.0000 0.02637  0.89726  0.04300  Biso   1.000  O
  O15      1.0000 0.51396  0.38353  0.00271  Biso   1.000  O
  O16      1.0000 0.51986  0.88243  0.00321  Biso   1.000  O
  O17      1.0000 0.27561  0.14796  0.55391  Biso   1.000  O
  O18      1.0000 0.26461  0.64419  0.51403  Biso   1.000  O
  O19      1.0000 0.77209  0.13403  0.50886  Biso   1.000  O
  O20      1.0000 0.76438  0.63389  0.50912  Biso   1.000  O
  O21      1.0000 0.22442  0.10294  0.04326  Biso   1.000  O
  O22      1.0000 0.23795  0.60969  0.00488  Biso   1.000  O
  O23      1.0000 0.73095  0.11776  0.00316  Biso   1.000  O
  O24      1.0000 0.73684  0.61667  0.00276  Biso   1.000  O
  O25      1.0000 0.26460  0.35601  0.98725  Biso   1.000  O
  O26      1.0000 0.27562  0.85225  0.94749  Biso   1.000  O
  O27      1.0000 0.76436  0.36632  0.99218  Biso   1.000  O
  O28      1.0000 0.77212  0.86618  0.99235  Biso   1.000  O
  O29      1.0000 0.23793  0.39050  0.49639  Biso   1.000  O
  O30      1.0000 0.22448  0.89727  0.45816  Biso   1.000  O
  O31      1.0000 0.73682  0.38354  0.49855  Biso   1.000  O
  O32      1.0000 0.73099  0.88244  0.49805  Biso   1.000  O
