data_image0
_cell_length_a       10.1752
_cell_length_b       10.4343
_cell_length_c       10.4831
_cell_angle_alpha    89.9546
_cell_angle_beta     80.8814
_cell_angle_gamma    90.2669

_symmetry_space_group_name_H-M    "P 1"
_symmetry_int_tables_number       1

loop_
  _symmetry_equiv_pos_as_xyz
  'x, y, z'

loop_
  _atom_site_label
  _atom_site_occupancy
  _atom_site_fract_x
  _atom_site_fract_y
  _atom_site_fract_z
  _atom_site_thermal_displace_type
  _atom_site_B_iso_or_equiv
  _atom_site_type_symbol
  Cs1      1.0000 0.11502  0.01375  0.11645  Biso   1.000  Cs
  Zr1      1.0000 0.13997  0.02221  0.64555  Biso   1.000  Zr
  Zr2      1.0000 0.13870  0.51946  0.14336  Biso   1.000  Zr
  Zr3      1.0000 0.13922  0.52173  0.64326  Biso   1.000  Zr
  Zr4      1.0000 0.64031  0.02042  0.14678  Biso   1.000  Zr
  Zr5      1.0000 0.63906  0.02253  0.64784  Biso   1.000  Zr
  Zr6      1.0000 0.63653  0.51893  0.14717  Biso   1.000  Zr
  Zr7      1.0000 0.63845  0.52057  0.64393  Biso   1.000  Zr
  Zr8      1.0000 0.13849  0.22596  0.39353  Biso   1.000  Zr
  Zr9      1.0000 0.13554  0.23783  0.89091  Biso   1.000  Zr
  Zr10     1.0000 0.13839  0.72863  0.39394  Biso   1.000  Zr
  Zr11     1.0000 0.14144  0.72592  0.89209  Biso   1.000  Zr
  Zr12     1.0000 0.63606  0.22885  0.39660  Biso   1.000  Zr
  Zr13     1.0000 0.63870  0.22870  0.89625  Biso   1.000  Zr
  Zr14     1.0000 0.63645  0.72824  0.39629  Biso   1.000  Zr
  Zr15     1.0000 0.64162  0.72818  0.89335  Biso   1.000  Zr
  Zr16     1.0000 0.35971  0.26916  0.10815  Biso   1.000  Zr
  Zr17     1.0000 0.36044  0.27040  0.60375  Biso   1.000  Zr
  Zr18     1.0000 0.36661  0.76691  0.10616  Biso   1.000  Zr
  Zr19     1.0000 0.36055  0.77148  0.60123  Biso   1.000  Zr
  Zr20     1.0000 0.85420  0.27557  0.10642  Biso   1.000  Zr
  Zr21     1.0000 0.86236  0.27252  0.60528  Biso   1.000  Zr
  Zr22     1.0000 0.85764  0.76118  0.10203  Biso   1.000  Zr
  Zr23     1.0000 0.86305  0.77133  0.60563  Biso   1.000  Zr
  Zr24     1.0000 0.35806  0.47782  0.35443  Biso   1.000  Zr
  Zr25     1.0000 0.36365  0.47765  0.85414  Biso   1.000  Zr
  Zr26     1.0000 0.35782  0.98004  0.35101  Biso   1.000  Zr
  Zr27     1.0000 0.36569  0.97419  0.84921  Biso   1.000  Zr
  Zr28     1.0000 0.86133  0.47956  0.35589  Biso   1.000  Zr
  Zr29     1.0000 0.85998  0.47933  0.85222  Biso   1.000  Zr
  Zr30     1.0000 0.85517  0.98161  0.36802  Biso   1.000  Zr
  Zr31     1.0000 0.86276  0.97934  0.85614  Biso   1.000  Zr
  O1       1.0000 0.04315  0.21781  0.08786  Biso   1.000  O
  O2       1.0000 0.03804  0.17559  0.58708  Biso   1.000  O
  O3       1.0000 0.04049  0.67759  0.08368  Biso   1.000  O
  O4       1.0000 0.03809  0.67361  0.58452  Biso   1.000  O
  O5       1.0000 0.53818  0.17081  0.08261  Biso   1.000  O
  O6       1.0000 0.53483  0.17036  0.58271  Biso   1.000  O
  O7       1.0000 0.54115  0.66903  0.08065  Biso   1.000  O
  O8       1.0000 0.53553  0.67014  0.58146  Biso   1.000  O
  O9       1.0000 0.02822  0.07815  0.34810  Biso   1.000  O
  O10      1.0000 0.03872  0.07873  0.83786  Biso   1.000  O
  O11      1.0000 0.03695  0.57800  0.33174  Biso   1.000  O
  O12      1.0000 0.03711  0.57569  0.83257  Biso   1.000  O
  O13      1.0000 0.53972  0.07605  0.33250  Biso   1.000  O
  O14      1.0000 0.53743  0.07818  0.83225  Biso   1.000  O
  O15      1.0000 0.53393  0.57866  0.33193  Biso   1.000  O
  O16      1.0000 0.53899  0.57645  0.83209  Biso   1.000  O
  O17      1.0000 0.46251  0.41835  0.16958  Biso   1.000  O
  O18      1.0000 0.46342  0.42057  0.66748  Biso   1.000  O
  O19      1.0000 0.46775  0.91943  0.16718  Biso   1.000  O
  O20      1.0000 0.46539  0.91925  0.66787  Biso   1.000  O
  O21      1.0000 0.95383  0.43476  0.16296  Biso   1.000  O
  O22      1.0000 0.96178  0.42545  0.66524  Biso   1.000  O
  O23      1.0000 0.94505  0.91993  0.18065  Biso   1.000  O
  O24      1.0000 0.96371  0.92342  0.66973  Biso   1.000  O
  O25      1.0000 0.46224  0.32778  0.41781  Biso   1.000  O
  O26      1.0000 0.46192  0.32394  0.91729  Biso   1.000  O
  O27      1.0000 0.46464  0.82997  0.41860  Biso   1.000  O
  O28      1.0000 0.47446  0.82989  0.91612  Biso   1.000  O
  O29      1.0000 0.96209  0.32909  0.41708  Biso   1.000  O
  O30      1.0000 0.95614  0.32581  0.91047  Biso   1.000  O
  O31      1.0000 0.96193  0.82797  0.42050  Biso   1.000  O
  O32      1.0000 0.96847  0.83214  0.92279  Biso   1.000  O
  O33      1.0000 0.28417  0.13523  0.24809  Biso   1.000  O
  O34      1.0000 0.27705  0.13060  0.74170  Biso   1.000  O
  O35      1.0000 0.27696  0.62277  0.23831  Biso   1.000  O
  O36      1.0000 0.27719  0.62881  0.73895  Biso   1.000  O
  O37      1.0000 0.77844  0.13083  0.24327  Biso   1.000  O
  O38      1.0000 0.77688  0.12981  0.74340  Biso   1.000  O
  O39      1.0000 0.77241  0.62813  0.24187  Biso   1.000  O
  O40      1.0000 0.77666  0.62908  0.73984  Biso   1.000  O
  O41      1.0000 0.27482  0.12030  0.49326  Biso   1.000  O
  O42      1.0000 0.27203  0.11720  0.98828  Biso   1.000  O
  O43      1.0000 0.27513  0.62137  0.48905  Biso   1.000  O
  O44      1.0000 0.27638  0.61605  0.98947  Biso   1.000  O
  O45      1.0000 0.77243  0.12315  0.49633  Biso   1.000  O
  O46      1.0000 0.77800  0.12071  0.99342  Biso   1.000  O
  O47      1.0000 0.77551  0.62141  0.49078  Biso   1.000  O
  O48      1.0000 0.77877  0.61961  0.99043  Biso   1.000  O
  O49      1.0000 0.22803  0.37960  0.00598  Biso   1.000  O
  O50      1.0000 0.22369  0.37997  0.50822  Biso   1.000  O
  O51      1.0000 0.24712  0.86011  0.99185  Biso   1.000  O
  O52      1.0000 0.22384  0.88097  0.50822  Biso   1.000  O
  O53      1.0000 0.72061  0.38099  0.00857  Biso   1.000  O
  O54      1.0000 0.72333  0.37967  0.50954  Biso   1.000  O
  O55      1.0000 0.72742  0.87783  0.00964  Biso   1.000  O
  O56      1.0000 0.72220  0.87951  0.51361  Biso   1.000  O
  O57      1.0000 0.22006  0.37158  0.25742  Biso   1.000  O
  O58      1.0000 0.22325  0.37286  0.75705  Biso   1.000  O
  O59      1.0000 0.23522  0.85756  0.26104  Biso   1.000  O
  O60      1.0000 0.22404  0.87025  0.75489  Biso   1.000  O
  O61      1.0000 0.72138  0.37097  0.26065  Biso   1.000  O
  O62      1.0000 0.72328  0.37018  0.75842  Biso   1.000  O
  O63      1.0000 0.72781  0.86956  0.26044  Biso   1.000  O
  O64      1.0000 0.72704  0.87073  0.76004  Biso   1.000  O
