data_image0
_cell_length_a       10.1915
_cell_length_b       5.19528
_cell_length_c       10.8207
_cell_angle_alpha    88.9184
_cell_angle_beta     91.3966
_cell_angle_gamma    90.3675

_symmetry_space_group_name_H-M    "P 1"
_symmetry_int_tables_number       1

loop_
  _symmetry_equiv_pos_as_xyz
  'x, y, z'

loop_
  _atom_site_label
  _atom_site_occupancy
  _atom_site_fract_x
  _atom_site_fract_y
  _atom_site_fract_z
  _atom_site_thermal_displace_type
  _atom_site_B_iso_or_equiv
  _atom_site_type_symbol
  Zr1      1.0000 0.13702  0.04506  0.17387  Biso   1.000  Zr
  Zr2      1.0000 0.13665  0.44636  0.42485  Biso   1.000  Zr
  Zr3      1.0000 0.34867  0.55329  0.19068  Biso   1.000  Zr
  Zr4      1.0000 0.36138  0.94868  0.42744  Biso   1.000  Zr
  Zr5      1.0000 0.63431  0.04530  0.10103  Biso   1.000  Zr
  Zr6      1.0000 0.63796  0.45298  0.33682  Biso   1.000  Zr
  Zr7      1.0000 0.87251  0.54866  0.07573  Biso   1.000  Zr
  Zr8      1.0000 0.86293  0.95436  0.32960  Biso   1.000  Zr
  O1       1.0000 0.03167  0.30894  0.07283  Biso   1.000  O
  O2       1.0000 0.02713  0.18516  0.32569  Biso   1.000  O
  O3       1.0000 0.43696  0.89200  0.11911  Biso   1.000  O
  O4       1.0000 0.46689  0.67201  0.33957  Biso   1.000  O
  O5       1.0000 0.26808  0.24785  0.30032  Biso   1.000  O
  O6       1.0000 0.27695  0.27088  0.04485  Biso   1.000  O
  O7       1.0000 0.22041  0.74832  0.30516  Biso   1.000  O
  O8       1.0000 0.21574  0.75855  0.05239  Biso   1.000  O
  O9       1.0000 0.51980  0.31032  0.19961  Biso   1.000  O
  O10      1.0000 0.52849  0.17259  0.42866  Biso   1.000  O
  O11      1.0000 0.97223  0.81365  0.18037  Biso   1.000  O
  O12      1.0000 0.97339  0.68125  0.42691  Biso   1.000  O
  O13      1.0000 0.77591  0.23839  0.44901  Biso   1.000  O
  O14      1.0000 0.77535  0.25653  0.20281  Biso   1.000  O
  O15      1.0000 0.73129  0.73768  0.46017  Biso   1.000  O
  O16      1.0000 0.72093  0.75060  0.21671  Biso   1.000  O
  Zr9      1.0000 0.14270  0.03350  0.67461  Biso   1.000  Zr
  Zr10     1.0000 0.14186  0.46523  0.92048  Biso   1.000  Zr
  Zr11     1.0000 0.36039  0.53406  0.67055  Biso   1.000  Zr
  Zr12     1.0000 0.35243  0.97625  0.93301  Biso   1.000  Zr
  Zr13     1.0000 0.64207  0.01842  0.56960  Biso   1.000  Zr
  Zr14     1.0000 0.64482  0.42638  0.78754  Biso   1.000  Zr
  Zr15     1.0000 0.87287  0.54083  0.57965  Biso   1.000  Zr
  Zr16     1.0000 0.87087  0.97353  0.83399  Biso   1.000  Zr
  O17      1.0000 0.03241  0.30761  0.57697  Biso   1.000  O
  O18      1.0000 0.03650  0.18741  0.82459  Biso   1.000  O
  O19      1.0000 0.47620  0.78787  0.56959  Biso   1.000  O
  O20      1.0000 0.47890  0.66736  0.80129  Biso   1.000  O
  O21      1.0000 0.27680  0.24964  0.79679  Biso   1.000  O
  O22      1.0000 0.27294  0.23702  0.54591  Biso   1.000  O
  O23      1.0000 0.23100  0.74899  0.80132  Biso   1.000  O
  O24      1.0000 0.22606  0.74245  0.55117  Biso   1.000  O
  O25      1.0000 0.52328  0.27084  0.66509  Biso   1.000  O
  O26      1.0000 0.53626  0.11778  0.92603  Biso   1.000  O
  O27      1.0000 0.97722  0.81085  0.67616  Biso   1.000  O
  O28      1.0000 0.98113  0.68797  0.92238  Biso   1.000  O
  O29      1.0000 0.78276  0.30876  0.92685  Biso   1.000  O
  O30      1.0000 0.78100  0.22618  0.68565  Biso   1.000  O
  O31      1.0000 0.76774  0.84075  0.98379  Biso   1.000  O
  O32      1.0000 0.73610  0.73593  0.70845  Biso   1.000  O
  Cs1      1.0000 0.56178  0.56534  0.00966  Biso   1.000  Cs
