data_image0
_cell_length_a       5.12917
_cell_length_b       10.3658
_cell_length_c       10.5803
_cell_angle_alpha    90.2838
_cell_angle_beta     79.4541
_cell_angle_gamma    90.1837

_symmetry_space_group_name_H-M    "P 1"
_symmetry_int_tables_number       1

loop_
  _symmetry_equiv_pos_as_xyz
  'x, y, z'

loop_
  _atom_site_label
  _atom_site_occupancy
  _atom_site_fract_x
  _atom_site_fract_y
  _atom_site_fract_z
  _atom_site_thermal_displace_type
  _atom_site_B_iso_or_equiv
  _atom_site_type_symbol
  Zr1      1.0000 0.27257  0.02170  0.14494  Biso   1.000  Zr
  Zr2      1.0000 0.30420  0.23266  0.40138  Biso   1.000  Zr
  Zr3      1.0000 0.70673  0.27554  0.10116  Biso   1.000  Zr
  Zr4      1.0000 0.71573  0.47766  0.34979  Biso   1.000  Zr
  O1       1.0000 0.05911  0.16891  0.08126  Biso   1.000  O
  O2       1.0000 0.07497  0.07763  0.33426  Biso   1.000  O
  O3       1.0000 0.91900  0.42457  0.16636  Biso   1.000  O
  O4       1.0000 0.95755  0.34513  0.43073  Biso   1.000  O
  O5       1.0000 0.54758  0.12454  0.23962  Biso   1.000  O
  O6       1.0000 0.56538  0.11774  0.49380  Biso   1.000  O
  O7       1.0000 0.43864  0.38173  0.00672  Biso   1.000  O
  O8       1.0000 0.41870  0.37591  0.25502  Biso   1.000  O
  Zr5      1.0000 0.27596  0.02118  0.64760  Biso   1.000  Zr
  Zr6      1.0000 0.27014  0.22997  0.89674  Biso   1.000  Zr
  Zr7      1.0000 0.72890  0.27235  0.61098  Biso   1.000  Zr
  Zr8      1.0000 0.71826  0.48046  0.85580  Biso   1.000  Zr
  O9       1.0000 0.07787  0.16851  0.58048  Biso   1.000  O
  O10      1.0000 0.06369  0.08386  0.82937  Biso   1.000  O
  O11      1.0000 0.93490  0.41639  0.67601  Biso   1.000  O
  O12      1.0000 0.92549  0.33442  0.92126  Biso   1.000  O
  O13      1.0000 0.54896  0.12928  0.74267  Biso   1.000  O
  O14      1.0000 0.54132  0.12308  0.99034  Biso   1.000  O
  O15      1.0000 0.46197  0.37714  0.51379  Biso   1.000  O
  O16      1.0000 0.44891  0.37213  0.76093  Biso   1.000  O
  Zr9      1.0000 0.27108  0.52393  0.14542  Biso   1.000  Zr
  Zr10     1.0000 0.27362  0.72454  0.39681  Biso   1.000  Zr
  Zr11     1.0000 0.71678  0.77189  0.10459  Biso   1.000  Zr
  Zr12     1.0000 0.71760  0.96804  0.35736  Biso   1.000  Zr
  O17      1.0000 0.06204  0.67041  0.07765  Biso   1.000  O
  O18      1.0000 0.05992  0.58580  0.32699  Biso   1.000  O
  O19      1.0000 0.92820  0.91633  0.17431  Biso   1.000  O
  O20      1.0000 0.92840  0.83008  0.42413  Biso   1.000  O
  O21      1.0000 0.54711  0.62969  0.24110  Biso   1.000  O
  O22      1.0000 0.54566  0.62040  0.49125  Biso   1.000  O
  O23      1.0000 0.44569  0.88015  0.01104  Biso   1.000  O
  O24      1.0000 0.44321  0.86996  0.26133  Biso   1.000  O
  Zr13     1.0000 0.27817  0.52235  0.64665  Biso   1.000  Zr
  Zr14     1.0000 0.27140  0.72968  0.89697  Biso   1.000  Zr
  Zr15     1.0000 0.71985  0.77022  0.60634  Biso   1.000  Zr
  Zr16     1.0000 0.71829  0.97909  0.85533  Biso   1.000  Zr
  O25      1.0000 0.06253  0.66437  0.57960  Biso   1.000  O
  O26      1.0000 0.06510  0.58523  0.82875  Biso   1.000  O
  O27      1.0000 0.92943  0.91667  0.67252  Biso   1.000  O
  O28      1.0000 0.92855  0.83596  0.92270  Biso   1.000  O
  O29      1.0000 0.54883  0.62845  0.74139  Biso   1.000  O
  O30      1.0000 0.54630  0.62425  0.99074  Biso   1.000  O
  O31      1.0000 0.44483  0.87619  0.51198  Biso   1.000  O
  O32      1.0000 0.44648  0.87197  0.76124  Biso   1.000  O
  Cu1      1.0000 0.84704  0.22193  0.31777  Biso   1.000  Cu
