data_image0
_cell_length_a       10.1497
_cell_length_b       5.11564
_cell_length_c       10.5289
_cell_angle_alpha    90.1155
_cell_angle_beta     80.8902
_cell_angle_gamma    89.1593

_symmetry_space_group_name_H-M    "P 1"
_symmetry_int_tables_number       1

loop_
  _symmetry_equiv_pos_as_xyz
  'x, y, z'

loop_
  _atom_site_label
  _atom_site_occupancy
  _atom_site_fract_x
  _atom_site_fract_y
  _atom_site_fract_z
  _atom_site_thermal_displace_type
  _atom_site_B_iso_or_equiv
  _atom_site_type_symbol
  Fe1      1.0000 0.12021  0.02403  0.16807  Biso   1.000  Fe
  Zr1      1.0000 0.13805  0.04025  0.64245  Biso   1.000  Zr
  Zr2      1.0000 0.63521  0.04178  0.14388  Biso   1.000  Zr
  Zr3      1.0000 0.63761  0.04317  0.64771  Biso   1.000  Zr
  Zr4      1.0000 0.13746  0.45555  0.38942  Biso   1.000  Zr
  Zr5      1.0000 0.14330  0.45788  0.89239  Biso   1.000  Zr
  Zr6      1.0000 0.63684  0.45567  0.39460  Biso   1.000  Zr
  Zr7      1.0000 0.63762  0.46321  0.89858  Biso   1.000  Zr
  Zr8      1.0000 0.35145  0.55317  0.10141  Biso   1.000  Zr
  Zr9      1.0000 0.36141  0.54689  0.60366  Biso   1.000  Zr
  Zr10     1.0000 0.86853  0.52832  0.10774  Biso   1.000  Zr
  Zr11     1.0000 0.85997  0.53857  0.60726  Biso   1.000  Zr
  Zr12     1.0000 0.35797  0.95979  0.34947  Biso   1.000  Zr
  Zr13     1.0000 0.36028  0.97323  0.85744  Biso   1.000  Zr
  Zr14     1.0000 0.85726  0.95226  0.35754  Biso   1.000  Zr
  Zr15     1.0000 0.86438  0.95427  0.85801  Biso   1.000  Zr
  O1       1.0000 0.04824  0.28857  0.08480  Biso   1.000  O
  O2       1.0000 0.03045  0.31550  0.56886  Biso   1.000  O
  O3       1.0000 0.53149  0.33127  0.07571  Biso   1.000  O
  O4       1.0000 0.53321  0.32978  0.57403  Biso   1.000  O
  O5       1.0000 0.03285  0.15688  0.32204  Biso   1.000  O
  O6       1.0000 0.03442  0.17282  0.82608  Biso   1.000  O
  O7       1.0000 0.53117  0.17212  0.32467  Biso   1.000  O
  O8       1.0000 0.53485  0.18191  0.82403  Biso   1.000  O
  O9       1.0000 0.46637  0.82295  0.17594  Biso   1.000  O
  O10      1.0000 0.46665  0.83105  0.67487  Biso   1.000  O
  O11      1.0000 0.97950  0.81489  0.17612  Biso   1.000  O
  O12      1.0000 0.96957  0.81538  0.67864  Biso   1.000  O
  O13      1.0000 0.46570  0.67535  0.42300  Biso   1.000  O
  O14      1.0000 0.46996  0.69495  0.92839  Biso   1.000  O
  O15      1.0000 0.96386  0.66496  0.42500  Biso   1.000  O
  O16      1.0000 0.96899  0.66371  0.93317  Biso   1.000  O
  O17      1.0000 0.26222  0.24578  0.22773  Biso   1.000  O
  O18      1.0000 0.27323  0.25538  0.73067  Biso   1.000  O
  O19      1.0000 0.77593  0.24633  0.24005  Biso   1.000  O
  O20      1.0000 0.77770  0.25539  0.74173  Biso   1.000  O
  O21      1.0000 0.27563  0.24732  0.48282  Biso   1.000  O
  O22      1.0000 0.29560  0.29826  0.96707  Biso   1.000  O
  O23      1.0000 0.77521  0.23942  0.49071  Biso   1.000  O
  O24      1.0000 0.77847  0.24341  0.99238  Biso   1.000  O
  O25      1.0000 0.21944  0.80989  0.01863  Biso   1.000  O
  O26      1.0000 0.22215  0.75613  0.50674  Biso   1.000  O
  O27      1.0000 0.72907  0.75453  0.01339  Biso   1.000  O
  O28      1.0000 0.72246  0.75332  0.51171  Biso   1.000  O
  O29      1.0000 0.21462  0.75070  0.25764  Biso   1.000  O
  O30      1.0000 0.22635  0.74378  0.76154  Biso   1.000  O
  O31      1.0000 0.73127  0.73468  0.25917  Biso   1.000  O
  O32      1.0000 0.72584  0.74558  0.76301  Biso   1.000  O
