data_image0
_cell_length_a       10.0587
_cell_length_b       10.2409
_cell_length_c       5.23341
_cell_angle_alpha    89.9429
_cell_angle_beta     90.9117
_cell_angle_gamma    89.302

_symmetry_space_group_name_H-M    "P 1"
_symmetry_int_tables_number       1

loop_
  _symmetry_equiv_pos_as_xyz
  'x, y, z'

loop_
  _atom_site_label
  _atom_site_occupancy
  _atom_site_fract_x
  _atom_site_fract_y
  _atom_site_fract_z
  _atom_site_thermal_displace_type
  _atom_site_B_iso_or_equiv
  _atom_site_type_symbol
  Fe1      1.0000 0.11603  0.01466  0.38737  Biso   1.000  Fe
  Zr1      1.0000 0.13997  0.52308  0.34513  Biso   1.000  Zr
  Zr2      1.0000 0.14697  0.22708  0.83363  Biso   1.000  Zr
  Zr3      1.0000 0.13823  0.73443  0.84422  Biso   1.000  Zr
  Zr4      1.0000 0.35870  0.26964  0.33371  Biso   1.000  Zr
  Zr5      1.0000 0.35472  0.77984  0.33505  Biso   1.000  Zr
  Zr6      1.0000 0.36069  0.48018  0.84297  Biso   1.000  Zr
  Zr7      1.0000 0.35595  0.98354  0.83532  Biso   1.000  Zr
  Zr8      1.0000 0.63643  0.02157  0.15461  Biso   1.000  Zr
  Zr9      1.0000 0.63861  0.52035  0.16255  Biso   1.000  Zr
  Zr10     1.0000 0.63906  0.22996  0.65957  Biso   1.000  Zr
  Zr11     1.0000 0.63433  0.72783  0.65710  Biso   1.000  Zr
  Zr12     1.0000 0.86814  0.26517  0.17015  Biso   1.000  Zr
  Zr13     1.0000 0.86005  0.76935  0.16208  Biso   1.000  Zr
  Zr14     1.0000 0.86429  0.47654  0.66844  Biso   1.000  Zr
  Zr15     1.0000 0.85488  0.97672  0.66361  Biso   1.000  Zr
  O1       1.0000 0.05176  0.14375  0.17782  Biso   1.000  O
  O2       1.0000 0.03218  0.66555  0.17029  Biso   1.000  O
  O3       1.0000 0.03225  0.08185  0.65757  Biso   1.000  O
  O4       1.0000 0.03347  0.58386  0.67517  Biso   1.000  O
  O5       1.0000 0.46576  0.41894  0.17147  Biso   1.000  O
  O6       1.0000 0.46597  0.91881  0.16326  Biso   1.000  O
  O7       1.0000 0.46737  0.33304  0.66965  Biso   1.000  O
  O8       1.0000 0.46013  0.83381  0.66576  Biso   1.000  O
  O9       1.0000 0.26261  0.11652  0.54646  Biso   1.000  O
  O10      1.0000 0.27442  0.62884  0.58892  Biso   1.000  O
  O11      1.0000 0.30351  0.14881  0.03459  Biso   1.000  O
  O12      1.0000 0.27576  0.63110  0.08886  Biso   1.000  O
  O13      1.0000 0.22616  0.37392  0.59153  Biso   1.000  O
  O14      1.0000 0.21033  0.88091  0.57897  Biso   1.000  O
  O15      1.0000 0.21990  0.38161  0.08913  Biso   1.000  O
  O16      1.0000 0.21926  0.88801  0.08566  Biso   1.000  O
  O17      1.0000 0.53672  0.17055  0.32416  Biso   1.000  O
  O18      1.0000 0.53143  0.66989  0.32536  Biso   1.000  O
  O19      1.0000 0.53829  0.07843  0.81533  Biso   1.000  O
  O20      1.0000 0.53401  0.58147  0.82784  Biso   1.000  O
  O21      1.0000 0.97252  0.40827  0.34689  Biso   1.000  O
  O22      1.0000 0.97079  0.91548  0.34127  Biso   1.000  O
  O23      1.0000 0.97049  0.32693  0.84929  Biso   1.000  O
  O24      1.0000 0.96327  0.83457  0.83867  Biso   1.000  O
  O25      1.0000 0.78019  0.12190  0.91516  Biso   1.000  O
  O26      1.0000 0.77620  0.62296  0.91676  Biso   1.000  O
  O27      1.0000 0.77861  0.12409  0.41161  Biso   1.000  O
  O28      1.0000 0.77577  0.62369  0.41724  Biso   1.000  O
  O29      1.0000 0.72889  0.37168  0.92037  Biso   1.000  O
  O30      1.0000 0.72088  0.87171  0.91163  Biso   1.000  O
  O31      1.0000 0.72892  0.37391  0.41605  Biso   1.000  O
  O32      1.0000 0.72513  0.87521  0.41180  Biso   1.000  O
