data_image0
_cell_length_a       4.99364
_cell_length_b       10.4216
_cell_length_c       10.0274
_cell_angle_alpha    90.8088
_cell_angle_beta     88.9193
_cell_angle_gamma    90.4846

_symmetry_space_group_name_H-M    "P 1"
_symmetry_int_tables_number       1

loop_
  _symmetry_equiv_pos_as_xyz
  'x, y, z'

loop_
  _atom_site_label
  _atom_site_occupancy
  _atom_site_fract_x
  _atom_site_fract_y
  _atom_site_fract_z
  _atom_site_thermal_displace_type
  _atom_site_B_iso_or_equiv
  _atom_site_type_symbol
  Fe1      1.0000 0.24178  0.03816  0.10816  Biso   1.000  Fe
  Zr1      1.0000 0.26189  0.01444  0.62418  Biso   1.000  Zr
  Zr2      1.0000 0.26830  0.51382  0.12821  Biso   1.000  Zr
  Zr3      1.0000 0.26931  0.51771  0.62462  Biso   1.000  Zr
  Zr4      1.0000 0.26878  0.22766  0.37209  Biso   1.000  Zr
  Zr5      1.0000 0.25717  0.23888  0.87234  Biso   1.000  Zr
  Zr6      1.0000 0.28392  0.73460  0.37742  Biso   1.000  Zr
  Zr7      1.0000 0.26097  0.73933  0.88107  Biso   1.000  Zr
  Zr8      1.0000 0.72894  0.25984  0.12046  Biso   1.000  Zr
  Zr9      1.0000 0.73040  0.26543  0.62319  Biso   1.000  Zr
  Zr10     1.0000 0.75094  0.76038  0.12178  Biso   1.000  Zr
  Zr11     1.0000 0.73853  0.76922  0.62800  Biso   1.000  Zr
  Zr12     1.0000 0.73819  0.48137  0.37550  Biso   1.000  Zr
  Zr13     1.0000 0.72656  0.48888  0.87384  Biso   1.000  Zr
  Zr14     1.0000 0.73996  0.98408  0.36973  Biso   1.000  Zr
  Zr15     1.0000 0.70852  0.98682  0.88171  Biso   1.000  Zr
  O1       1.0000 0.06416  0.17822  0.19191  Biso   1.000  O
  O2       1.0000 0.06469  0.18428  0.69624  Biso   1.000  O
  O3       1.0000 0.07900  0.68473  0.20005  Biso   1.000  O
  O4       1.0000 0.06850  0.68429  0.69936  Biso   1.000  O
  O5       1.0000 0.07133  0.06606  0.44876  Biso   1.000  O
  O6       1.0000 0.04523  0.07220  0.95872  Biso   1.000  O
  O7       1.0000 0.07718  0.56525  0.44501  Biso   1.000  O
  O8       1.0000 0.05599  0.57201  0.95294  Biso   1.000  O
  O9       1.0000 0.93422  0.42639  0.19487  Biso   1.000  O
  O10      1.0000 0.92727  0.43447  0.69392  Biso   1.000  O
  O11      1.0000 0.99778  0.94045  0.18790  Biso   1.000  O
  O12      1.0000 0.92684  0.93662  0.70217  Biso   1.000  O
  O13      1.0000 0.93400  0.31395  0.44322  Biso   1.000  O
  O14      1.0000 0.91462  0.31784  0.94072  Biso   1.000  O
  O15      1.0000 0.95033  0.82134  0.45161  Biso   1.000  O
  O16      1.0000 0.90781  0.82021  0.93932  Biso   1.000  O
  O17      1.0000 0.51312  0.09754  0.23493  Biso   1.000  O
  O18      1.0000 0.53210  0.11808  0.74793  Biso   1.000  O
  O19      1.0000 0.54422  0.60482  0.24821  Biso   1.000  O
  O20      1.0000 0.53401  0.62010  0.75134  Biso   1.000  O
  O21      1.0000 0.54546  0.13259  0.49190  Biso   1.000  O
  O22      1.0000 0.50378  0.13598  0.99838  Biso   1.000  O
  O23      1.0000 0.54801  0.63386  0.50036  Biso   1.000  O
  O24      1.0000 0.52909  0.63734  0.00025  Biso   1.000  O
  O25      1.0000 0.46231  0.38148  0.49799  Biso   1.000  O
  O26      1.0000 0.45365  0.38585  0.99684  Biso   1.000  O
  O27      1.0000 0.47358  0.88501  0.50297  Biso   1.000  O
  O28      1.0000 0.43462  0.89581  0.01436  Biso   1.000  O
  O29      1.0000 0.46601  0.35750  0.24681  Biso   1.000  O
  O30      1.0000 0.45591  0.36916  0.74736  Biso   1.000  O
  O31      1.0000 0.53297  0.84618  0.26166  Biso   1.000  O
  O32      1.0000 0.45436  0.86894  0.75459  Biso   1.000  O
