data_image0
_cell_length_a       10.0353
_cell_length_b       5.19916
_cell_length_c       10.0719
_cell_angle_alpha    90.6842
_cell_angle_beta     89.506
_cell_angle_gamma    90.2891

_symmetry_space_group_name_H-M    "P 1"
_symmetry_int_tables_number       1

loop_
  _symmetry_equiv_pos_as_xyz
  'x, y, z'

loop_
  _atom_site_label
  _atom_site_occupancy
  _atom_site_fract_x
  _atom_site_fract_y
  _atom_site_fract_z
  _atom_site_thermal_displace_type
  _atom_site_B_iso_or_equiv
  _atom_site_type_symbol
  Ga1      1.0000 0.12526  0.04804  0.11018  Biso   1.000  Ga
  Zr1      1.0000 0.13573  0.03471  0.62756  Biso   1.000  Zr
  Zr2      1.0000 0.63419  0.03296  0.12474  Biso   1.000  Zr
  Zr3      1.0000 0.63118  0.02924  0.62167  Biso   1.000  Zr
  Zr4      1.0000 0.13496  0.45576  0.37336  Biso   1.000  Zr
  Zr5      1.0000 0.13222  0.47923  0.87897  Biso   1.000  Zr
  Zr6      1.0000 0.63611  0.46948  0.37530  Biso   1.000  Zr
  Zr7      1.0000 0.63151  0.47407  0.87263  Biso   1.000  Zr
  Zr8      1.0000 0.36675  0.51829  0.12302  Biso   1.000  Zr
  Zr9      1.0000 0.36512  0.53644  0.62705  Biso   1.000  Zr
  Zr10     1.0000 0.86798  0.53408  0.12010  Biso   1.000  Zr
  Zr11     1.0000 0.86762  0.53157  0.62278  Biso   1.000  Zr
  Zr12     1.0000 0.36215  0.96176  0.37058  Biso   1.000  Zr
  Zr13     1.0000 0.36045  0.97553  0.88145  Biso   1.000  Zr
  Zr14     1.0000 0.87099  0.97055  0.37187  Biso   1.000  Zr
  Zr15     1.0000 0.86482  0.97648  0.87195  Biso   1.000  Zr
  O1       1.0000 0.02925  0.36262  0.19602  Biso   1.000  O
  O2       1.0000 0.03388  0.37043  0.69832  Biso   1.000  O
  O3       1.0000 0.53189  0.36156  0.20169  Biso   1.000  O
  O4       1.0000 0.53335  0.36711  0.69485  Biso   1.000  O
  O5       1.0000 0.03294  0.13164  0.45291  Biso   1.000  O
  O6       1.0000 0.03070  0.14127  0.94720  Biso   1.000  O
  O7       1.0000 0.53396  0.13481  0.44430  Biso   1.000  O
  O8       1.0000 0.52950  0.14645  0.95027  Biso   1.000  O
  O9       1.0000 0.47196  0.85815  0.19620  Biso   1.000  O
  O10      1.0000 0.46462  0.86955  0.70036  Biso   1.000  O
  O11      1.0000 0.98296  0.86407  0.19478  Biso   1.000  O
  O12      1.0000 0.96583  0.86815  0.69470  Biso   1.000  O
  O13      1.0000 0.47186  0.64054  0.45338  Biso   1.000  O
  O14      1.0000 0.46157  0.64222  0.94396  Biso   1.000  O
  O15      1.0000 0.96661  0.63202  0.44291  Biso   1.000  O
  O16      1.0000 0.96071  0.64044  0.94150  Biso   1.000  O
  O17      1.0000 0.25366  0.18486  0.24061  Biso   1.000  O
  O18      1.0000 0.26959  0.24068  0.74909  Biso   1.000  O
  O19      1.0000 0.77058  0.23030  0.24584  Biso   1.000  O
  O20      1.0000 0.76660  0.23393  0.74568  Biso   1.000  O
  O21      1.0000 0.27220  0.26579  0.49605  Biso   1.000  O
  O22      1.0000 0.26515  0.27626  0.99546  Biso   1.000  O
  O23      1.0000 0.76926  0.26838  0.49606  Biso   1.000  O
  O24      1.0000 0.76618  0.27414  0.99571  Biso   1.000  O
  O25      1.0000 0.23024  0.76511  0.50310  Biso   1.000  O
  O26      1.0000 0.22452  0.78054  0.01172  Biso   1.000  O
  O27      1.0000 0.73472  0.77056  0.49543  Biso   1.000  O
  O28      1.0000 0.72837  0.77347  0.99497  Biso   1.000  O
  O29      1.0000 0.25281  0.68078  0.26220  Biso   1.000  O
  O30      1.0000 0.22932  0.74122  0.75418  Biso   1.000  O
  O31      1.0000 0.73706  0.73182  0.24524  Biso   1.000  O
  O32      1.0000 0.72974  0.73356  0.74471  Biso   1.000  O
