data_image0
_cell_length_a       10.3172
_cell_length_b       10.3909
_cell_length_c       5.30898
_cell_angle_alpha    90.233
_cell_angle_beta     78.6917
_cell_angle_gamma    89.9903

_symmetry_space_group_name_H-M    "P 1"
_symmetry_int_tables_number       1

loop_
  _symmetry_equiv_pos_as_xyz
  'x, y, z'

loop_
  _atom_site_label
  _atom_site_occupancy
  _atom_site_fract_x
  _atom_site_fract_y
  _atom_site_fract_z
  _atom_site_thermal_displace_type
  _atom_site_B_iso_or_equiv
  _atom_site_type_symbol
  Zr1      1.0000 0.13235  0.02045  0.28230  Biso   1.000  Zr
  Zr2      1.0000 0.13497  0.23065  0.77791  Biso   1.000  Zr
  Zr3      1.0000 0.35593  0.27589  0.21711  Biso   1.000  Zr
  Zr4      1.0000 0.35619  0.48223  0.69620  Biso   1.000  Zr
  O1       1.0000 0.03891  0.17000  0.14916  Biso   1.000  O
  O2       1.0000 0.02940  0.08478  0.65193  Biso   1.000  O
  O3       1.0000 0.46234  0.43075  0.33262  Biso   1.000  O
  O4       1.0000 0.48243  0.34239  0.87010  Biso   1.000  O
  O5       1.0000 0.26603  0.11538  0.45939  Biso   1.000  O
  O6       1.0000 0.28700  0.12744  0.95144  Biso   1.000  O
  O7       1.0000 0.22507  0.38127  0.00333  Biso   1.000  O
  O8       1.0000 0.20755  0.37691  0.50214  Biso   1.000  O
  Zr5      1.0000 0.13726  0.52312  0.28246  Biso   1.000  Zr
  Zr6      1.0000 0.13398  0.72604  0.79209  Biso   1.000  Zr
  Zr7      1.0000 0.35980  0.77016  0.20942  Biso   1.000  Zr
  Zr8      1.0000 0.35359  0.96272  0.70501  Biso   1.000  Zr
  O9       1.0000 0.02870  0.66615  0.15378  Biso   1.000  O
  O10      1.0000 0.03040  0.58639  0.65094  Biso   1.000  O
  O11      1.0000 0.46640  0.91374  0.35105  Biso   1.000  O
  O12      1.0000 0.46508  0.83278  0.84881  Biso   1.000  O
  O13      1.0000 0.27276  0.62605  0.47860  Biso   1.000  O
  O14      1.0000 0.27321  0.62460  0.97781  Biso   1.000  O
  O15      1.0000 0.22188  0.87749  0.01875  Biso   1.000  O
  O16      1.0000 0.21883  0.86665  0.51498  Biso   1.000  O
  Zr9      1.0000 0.64088  0.01910  0.29793  Biso   1.000  Zr
  Zr10     1.0000 0.65840  0.22994  0.82266  Biso   1.000  Zr
  Zr11     1.0000 0.86364  0.27259  0.22234  Biso   1.000  Zr
  Zr12     1.0000 0.86151  0.48055  0.71243  Biso   1.000  Zr
  O17      1.0000 0.53574  0.16750  0.17437  Biso   1.000  O
  O18      1.0000 0.53026  0.08636  0.67055  Biso   1.000  O
  O19      1.0000 0.96427  0.41958  0.34300  Biso   1.000  O
  O20      1.0000 0.96233  0.33346  0.84483  Biso   1.000  O
  O21      1.0000 0.77456  0.12797  0.49650  Biso   1.000  O
  O22      1.0000 0.78399  0.11902  0.00054  Biso   1.000  O
  O23      1.0000 0.72761  0.37848  0.03721  Biso   1.000  O
  O24      1.0000 0.72534  0.37111  0.53468  Biso   1.000  O
  Zr13     1.0000 0.63694  0.52483  0.29916  Biso   1.000  Zr
  Zr14     1.0000 0.63744  0.72753  0.79744  Biso   1.000  Zr
  Zr15     1.0000 0.85756  0.77157  0.21310  Biso   1.000  Zr
  Zr16     1.0000 0.86056  0.97531  0.71310  Biso   1.000  Zr
  O25      1.0000 0.53377  0.66980  0.16168  Biso   1.000  O
  O26      1.0000 0.53023  0.58490  0.66168  Biso   1.000  O
  O27      1.0000 0.96262  0.91444  0.34950  Biso   1.000  O
  O28      1.0000 0.96493  0.83471  0.84960  Biso   1.000  O
  O29      1.0000 0.77283  0.62948  0.48621  Biso   1.000  O
  O30      1.0000 0.77363  0.62170  0.98515  Biso   1.000  O
  O31      1.0000 0.72293  0.87730  0.02475  Biso   1.000  O
  O32      1.0000 0.71974  0.87346  0.52689  Biso   1.000  O
  Ga1      1.0000 0.41957  0.22538  0.64738  Biso   1.000  Ga
