data_image0
_cell_length_a       5.09532
_cell_length_b       10.2765
_cell_length_c       10.5075
_cell_angle_alpha    90.1346
_cell_angle_beta     80.6684
_cell_angle_gamma    89.5754

_symmetry_space_group_name_H-M    "P 1"
_symmetry_int_tables_number       1

loop_
  _symmetry_equiv_pos_as_xyz
  'x, y, z'

loop_
  _atom_site_label
  _atom_site_occupancy
  _atom_site_fract_x
  _atom_site_fract_y
  _atom_site_fract_z
  _atom_site_thermal_displace_type
  _atom_site_B_iso_or_equiv
  _atom_site_type_symbol
  Ga1      1.0000 0.25166  0.01116  0.15810  Biso   1.000  Ga
  Zr1      1.0000 0.27588  0.02162  0.64328  Biso   1.000  Zr
  Zr2      1.0000 0.27814  0.52072  0.14461  Biso   1.000  Zr
  Zr3      1.0000 0.27976  0.52110  0.64688  Biso   1.000  Zr
  Zr4      1.0000 0.27520  0.22636  0.38952  Biso   1.000  Zr
  Zr5      1.0000 0.28761  0.22666  0.89648  Biso   1.000  Zr
  Zr6      1.0000 0.27512  0.72828  0.39548  Biso   1.000  Zr
  Zr7      1.0000 0.27545  0.73356  0.89781  Biso   1.000  Zr
  Zr8      1.0000 0.72983  0.26215  0.10484  Biso   1.000  Zr
  Zr9      1.0000 0.72076  0.27214  0.60357  Biso   1.000  Zr
  Zr10     1.0000 0.71259  0.77615  0.10598  Biso   1.000  Zr
  Zr11     1.0000 0.71954  0.77103  0.60636  Biso   1.000  Zr
  Zr12     1.0000 0.71982  0.47847  0.35403  Biso   1.000  Zr
  Zr13     1.0000 0.72526  0.47926  0.85760  Biso   1.000  Zr
  Zr14     1.0000 0.71259  0.97811  0.35277  Biso   1.000  Zr
  Zr15     1.0000 0.72146  0.98299  0.85556  Biso   1.000  Zr
  O1       1.0000 0.09036  0.15600  0.07810  Biso   1.000  O
  O2       1.0000 0.06621  0.16581  0.57468  Biso   1.000  O
  O3       1.0000 0.06429  0.66705  0.07940  Biso   1.000  O
  O4       1.0000 0.06684  0.66592  0.57965  Biso   1.000  O
  O5       1.0000 0.05855  0.08225  0.32759  Biso   1.000  O
  O6       1.0000 0.07371  0.08479  0.82544  Biso   1.000  O
  O7       1.0000 0.06827  0.58173  0.32879  Biso   1.000  O
  O8       1.0000 0.06854  0.58677  0.82990  Biso   1.000  O
  O9       1.0000 0.93813  0.41242  0.17285  Biso   1.000  O
  O10      1.0000 0.93502  0.41500  0.67461  Biso   1.000  O
  O11      1.0000 0.93231  0.91286  0.17424  Biso   1.000  O
  O12      1.0000 0.93086  0.91662  0.67139  Biso   1.000  O
  O13      1.0000 0.93169  0.33431  0.42180  Biso   1.000  O
  O14      1.0000 0.94689  0.33805  0.92727  Biso   1.000  O
  O15      1.0000 0.92649  0.83216  0.42236  Biso   1.000  O
  O16      1.0000 0.92339  0.83446  0.92323  Biso   1.000  O
  O17      1.0000 0.53643  0.11933  0.23119  Biso   1.000  O
  O18      1.0000 0.55156  0.12810  0.73401  Biso   1.000  O
  O19      1.0000 0.55058  0.62736  0.24024  Biso   1.000  O
  O20      1.0000 0.55083  0.62914  0.74200  Biso   1.000  O
  O21      1.0000 0.54925  0.12287  0.48555  Biso   1.000  O
  O22      1.0000 0.59142  0.13667  0.97329  Biso   1.000  O
  O23      1.0000 0.55058  0.62118  0.49141  Biso   1.000  O
  O24      1.0000 0.54873  0.62594  0.99067  Biso   1.000  O
  O25      1.0000 0.45864  0.38084  0.01092  Biso   1.000  O
  O26      1.0000 0.44676  0.37890  0.50927  Biso   1.000  O
  O27      1.0000 0.44070  0.89419  0.01561  Biso   1.000  O
  O28      1.0000 0.44523  0.87799  0.51016  Biso   1.000  O
  O29      1.0000 0.45548  0.36768  0.25878  Biso   1.000  O
  O30      1.0000 0.45415  0.37220  0.76081  Biso   1.000  O
  O31      1.0000 0.43973  0.86915  0.26079  Biso   1.000  O
  O32      1.0000 0.44773  0.87249  0.76114  Biso   1.000  O
