data_image0
_cell_length_a       10.1457
_cell_length_b       10.3496
_cell_length_c       10.5237
_cell_angle_alpha    89.9823
_cell_angle_beta     90.9647
_cell_angle_gamma    89.8882

_symmetry_space_group_name_H-M    "P 1"
_symmetry_int_tables_number       1

loop_
  _symmetry_equiv_pos_as_xyz
  'x, y, z'

loop_
  _atom_site_label
  _atom_site_occupancy
  _atom_site_fract_x
  _atom_site_fract_y
  _atom_site_fract_z
  _atom_site_thermal_displace_type
  _atom_site_B_iso_or_equiv
  _atom_site_type_symbol
  Zr1      1.0000 0.13393  0.01756  0.17483  Biso   1.000  Zr
  Zr2      1.0000 0.13773  0.22811  0.42579  Biso   1.000  Zr
  Zr3      1.0000 0.34526  0.26724  0.18286  Biso   1.000  Zr
  Zr4      1.0000 0.36208  0.47907  0.42327  Biso   1.000  Zr
  Zr5      1.0000 0.64377  0.01653  0.07586  Biso   1.000  Zr
  Zr6      1.0000 0.63718  0.22886  0.32948  Biso   1.000  Zr
  Zr7      1.0000 0.86122  0.27155  0.07705  Biso   1.000  Zr
  Zr8      1.0000 0.86129  0.47879  0.32835  Biso   1.000  Zr
  O1       1.0000 0.03170  0.16872  0.08852  Biso   1.000  O
  O2       1.0000 0.03034  0.08384  0.33701  Biso   1.000  O
  O3       1.0000 0.46862  0.43004  0.09604  Biso   1.000  O
  O4       1.0000 0.46394  0.33294  0.33561  Biso   1.000  O
  O5       1.0000 0.26981  0.12365  0.30146  Biso   1.000  O
  O6       1.0000 0.26279  0.11263  0.05194  Biso   1.000  O
  O7       1.0000 0.21771  0.37691  0.30245  Biso   1.000  O
  O8       1.0000 0.21850  0.37840  0.05196  Biso   1.000  O
  O9       1.0000 0.52236  0.15420  0.17644  Biso   1.000  O
  O10      1.0000 0.53172  0.08550  0.42032  Biso   1.000  O
  O11      1.0000 0.96409  0.41810  0.16640  Biso   1.000  O
  O12      1.0000 0.96760  0.33413  0.41655  Biso   1.000  O
  O13      1.0000 0.77495  0.12546  0.45320  Biso   1.000  O
  O14      1.0000 0.77136  0.12612  0.20303  Biso   1.000  O
  O15      1.0000 0.72542  0.37522  0.45349  Biso   1.000  O
  O16      1.0000 0.72246  0.37463  0.20416  Biso   1.000  O
  Zr9      1.0000 0.14154  0.02123  0.67416  Biso   1.000  Zr
  Zr10     1.0000 0.14161  0.22848  0.92546  Biso   1.000  Zr
  Zr11     1.0000 0.36565  0.27117  0.67302  Biso   1.000  Zr
  Zr12     1.0000 0.35906  0.48350  0.92664  Biso   1.000  Zr
  Zr13     1.0000 0.64075  0.02096  0.57924  Biso   1.000  Zr
  Zr14     1.0000 0.65757  0.23278  0.81965  Biso   1.000  Zr
  Zr15     1.0000 0.86510  0.27191  0.57672  Biso   1.000  Zr
  Zr16     1.0000 0.86890  0.48247  0.82767  Biso   1.000  Zr
  O17      1.0000 0.03523  0.16589  0.58596  Biso   1.000  O
  O18      1.0000 0.03874  0.08193  0.83611  Biso   1.000  O
  O19      1.0000 0.47111  0.41453  0.58218  Biso   1.000  O
  O20      1.0000 0.48047  0.34583  0.82607  Biso   1.000  O
  O21      1.0000 0.28037  0.12540  0.79834  Biso   1.000  O
  O22      1.0000 0.27742  0.12481  0.54902  Biso   1.000  O
  O23      1.0000 0.23147  0.37390  0.79947  Biso   1.000  O
  O24      1.0000 0.22788  0.37457  0.54931  Biso   1.000  O
  O25      1.0000 0.53889  0.16709  0.66690  Biso   1.000  O
  O26      1.0000 0.53422  0.06999  0.90647  Biso   1.000  O
  O27      1.0000 0.97249  0.41618  0.66550  Biso   1.000  O
  O28      1.0000 0.97113  0.33131  0.91399  Biso   1.000  O
  O29      1.0000 0.78433  0.12163  0.95055  Biso   1.000  O
  O30      1.0000 0.78512  0.12312  0.70005  Biso   1.000  O
  O31      1.0000 0.74004  0.38739  0.95056  Biso   1.000  O
  O32      1.0000 0.73302  0.37638  0.70105  Biso   1.000  O
  Zr17     1.0000 0.13655  0.52227  0.17355  Biso   1.000  Zr
  Zr18     1.0000 0.13879  0.72890  0.42284  Biso   1.000  Zr
  Zr19     1.0000 0.36302  0.77137  0.17452  Biso   1.000  Zr
  Zr20     1.0000 0.36232  0.97809  0.42555  Biso   1.000  Zr
  Zr21     1.0000 0.64320  0.52479  0.07813  Biso   1.000  Zr
  Zr22     1.0000 0.63954  0.72980  0.32921  Biso   1.000  Zr
  Zr23     1.0000 0.86229  0.77001  0.07937  Biso   1.000  Zr
  Zr24     1.0000 0.86023  0.97985  0.33013  Biso   1.000  Zr
  O33      1.0000 0.03373  0.66698  0.08514  Biso   1.000  O
  O34      1.0000 0.03189  0.58487  0.33605  Biso   1.000  O
  O35      1.0000 0.46945  0.91473  0.08494  Biso   1.000  O
  O36      1.0000 0.46874  0.83534  0.33659  Biso   1.000  O
  O37      1.0000 0.27496  0.62517  0.29646  Biso   1.000  O
  O38      1.0000 0.27539  0.62498  0.04699  Biso   1.000  O
  O39      1.0000 0.22528  0.87414  0.29857  Biso   1.000  O
  O40      1.0000 0.22510  0.87048  0.04938  Biso   1.000  O
  O41      1.0000 0.53612  0.67037  0.16655  Biso   1.000  O
  O42      1.0000 0.53283  0.58522  0.41591  Biso   1.000  O
  O43      1.0000 0.96325  0.91728  0.16623  Biso   1.000  O
  O44      1.0000 0.96712  0.83389  0.41650  Biso   1.000  O
  O45      1.0000 0.77628  0.62472  0.45468  Biso   1.000  O
  O46      1.0000 0.77727  0.62640  0.20496  Biso   1.000  O
  O47      1.0000 0.72637  0.87557  0.45602  Biso   1.000  O
  O48      1.0000 0.72488  0.87505  0.20565  Biso   1.000  O
  Zr25     1.0000 0.14261  0.52017  0.67237  Biso   1.000  Zr
  Zr26     1.0000 0.14054  0.73002  0.92313  Biso   1.000  Zr
  Zr27     1.0000 0.36329  0.77023  0.67329  Biso   1.000  Zr
  Zr28     1.0000 0.35963  0.97524  0.92437  Biso   1.000  Zr
  Zr29     1.0000 0.64052  0.52194  0.57696  Biso   1.000  Zr
  Zr30     1.0000 0.63981  0.72866  0.82799  Biso   1.000  Zr
  Zr31     1.0000 0.86404  0.77113  0.57967  Biso   1.000  Zr
  Zr32     1.0000 0.86628  0.97775  0.82896  Biso   1.000  Zr
  O49      1.0000 0.03571  0.66614  0.58601  Biso   1.000  O
  O50      1.0000 0.03958  0.58275  0.83628  Biso   1.000  O
  O51      1.0000 0.47000  0.91481  0.58660  Biso   1.000  O
  O52      1.0000 0.46671  0.82966  0.83596  Biso   1.000  O
  O53      1.0000 0.27796  0.62497  0.79686  Biso   1.000  O
  O54      1.0000 0.27647  0.62445  0.54649  Biso   1.000  O
  O55      1.0000 0.22556  0.87363  0.79754  Biso   1.000  O
  O56      1.0000 0.22656  0.87531  0.54783  Biso   1.000  O
  O57      1.0000 0.53410  0.66468  0.66592  Biso   1.000  O
  O58      1.0000 0.53338  0.58529  0.91757  Biso   1.000  O
  O59      1.0000 0.97095  0.91515  0.66646  Biso   1.000  O
  O60      1.0000 0.96910  0.83305  0.91737  Biso   1.000  O
  O61      1.0000 0.77774  0.62955  0.95313  Biso   1.000  O
  O62      1.0000 0.77755  0.62589  0.70394  Biso   1.000  O
  O63      1.0000 0.72744  0.87505  0.95551  Biso   1.000  O
  O64      1.0000 0.72787  0.87485  0.70605  Biso   1.000  O
  Ge1      1.0000 0.50142  0.25002  0.00126  Biso   1.000  Ge
