data_image0
_cell_length_a       5.07506
_cell_length_b       10.2611
_cell_length_c       10.5375
_cell_angle_alpha    90.2736
_cell_angle_beta     80.962
_cell_angle_gamma    89.2882

_symmetry_space_group_name_H-M    "P 1"
_symmetry_int_tables_number       1

loop_
  _symmetry_equiv_pos_as_xyz
  'x, y, z'

loop_
  _atom_site_label
  _atom_site_occupancy
  _atom_site_fract_x
  _atom_site_fract_y
  _atom_site_fract_z
  _atom_site_thermal_displace_type
  _atom_site_B_iso_or_equiv
  _atom_site_type_symbol
  Ge1      1.0000 0.24240  0.01358  0.16003  Biso   1.000  Ge
  Zr1      1.0000 0.27323  0.02130  0.64311  Biso   1.000  Zr
  Zr2      1.0000 0.27496  0.52148  0.14462  Biso   1.000  Zr
  Zr3      1.0000 0.28011  0.52042  0.64651  Biso   1.000  Zr
  Zr4      1.0000 0.27481  0.22710  0.38874  Biso   1.000  Zr
  Zr5      1.0000 0.28964  0.22735  0.89438  Biso   1.000  Zr
  Zr6      1.0000 0.27264  0.72639  0.39693  Biso   1.000  Zr
  Zr7      1.0000 0.26812  0.73248  0.89697  Biso   1.000  Zr
  Zr8      1.0000 0.73318  0.26320  0.10318  Biso   1.000  Zr
  Zr9      1.0000 0.72372  0.27200  0.60364  Biso   1.000  Zr
  Zr10     1.0000 0.71261  0.77597  0.10676  Biso   1.000  Zr
  Zr11     1.0000 0.71939  0.77047  0.60872  Biso   1.000  Zr
  Zr12     1.0000 0.72195  0.47747  0.35383  Biso   1.000  Zr
  Zr13     1.0000 0.72780  0.47906  0.85840  Biso   1.000  Zr
  Zr14     1.0000 0.71098  0.97509  0.35519  Biso   1.000  Zr
  Zr15     1.0000 0.72400  0.98593  0.85552  Biso   1.000  Zr
  O1       1.0000 0.09838  0.14973  0.07673  Biso   1.000  O
  O2       1.0000 0.06543  0.16171  0.56934  Biso   1.000  O
  O3       1.0000 0.06182  0.66688  0.07835  Biso   1.000  O
  O4       1.0000 0.06562  0.66357  0.57796  Biso   1.000  O
  O5       1.0000 0.05995  0.08113  0.32017  Biso   1.000  O
  O6       1.0000 0.07448  0.08692  0.82252  Biso   1.000  O
  O7       1.0000 0.06874  0.58144  0.32819  Biso   1.000  O
  O8       1.0000 0.06706  0.58913  0.82747  Biso   1.000  O
  O9       1.0000 0.94130  0.41006  0.17551  Biso   1.000  O
  O10      1.0000 0.93842  0.41180  0.67762  Biso   1.000  O
  O11      1.0000 0.93882  0.91296  0.17609  Biso   1.000  O
  O12      1.0000 0.93140  0.91443  0.67441  Biso   1.000  O
  O13      1.0000 0.93367  0.33458  0.42388  Biso   1.000  O
  O14      1.0000 0.95335  0.34101  0.93158  Biso   1.000  O
  O15      1.0000 0.92561  0.83300  0.42508  Biso   1.000  O
  O16      1.0000 0.91495  0.83586  0.92688  Biso   1.000  O
  O17      1.0000 0.52436  0.11435  0.22344  Biso   1.000  O
  O18      1.0000 0.55153  0.12766  0.73054  Biso   1.000  O
  O19      1.0000 0.55033  0.62788  0.24023  Biso   1.000  O
  O20      1.0000 0.55013  0.62829  0.74191  Biso   1.000  O
  O21      1.0000 0.55230  0.12248  0.48092  Biso   1.000  O
  O22      1.0000 0.59899  0.14223  0.96829  Biso   1.000  O
  O23      1.0000 0.55123  0.62002  0.49150  Biso   1.000  O
  O24      1.0000 0.54688  0.62982  0.99055  Biso   1.000  O
  O25      1.0000 0.46224  0.38298  0.01160  Biso   1.000  O
  O26      1.0000 0.44668  0.37734  0.50914  Biso   1.000  O
  O27      1.0000 0.43319  0.90618  0.02460  Biso   1.000  O
  O28      1.0000 0.44405  0.87677  0.51188  Biso   1.000  O
  O29      1.0000 0.45993  0.36501  0.25851  Biso   1.000  O
  O30      1.0000 0.45662  0.37231  0.76144  Biso   1.000  O
  O31      1.0000 0.43638  0.87076  0.26189  Biso   1.000  O
  O32      1.0000 0.44663  0.87242  0.76524  Biso   1.000  O
