data_image0
_cell_length_a       10.0918
_cell_length_b       10.3088
_cell_length_c       10.499
_cell_angle_alpha    89.9978
_cell_angle_beta     90.0019
_cell_angle_gamma    89.9945

_symmetry_space_group_name_H-M    "P 1"
_symmetry_int_tables_number       1

loop_
  _symmetry_equiv_pos_as_xyz
  'x, y, z'

loop_
  _atom_site_label
  _atom_site_occupancy
  _atom_site_fract_x
  _atom_site_fract_y
  _atom_site_fract_z
  _atom_site_thermal_displace_type
  _atom_site_B_iso_or_equiv
  _atom_site_type_symbol
  Hf1      1.0000 0.13896  0.02097  0.17147  Biso   1.000  Hf
  Zr1      1.0000 0.13872  0.02105  0.67095  Biso   1.000  Zr
  Zr2      1.0000 0.13879  0.52105  0.17101  Biso   1.000  Zr
  Zr3      1.0000 0.13879  0.52100  0.67106  Biso   1.000  Zr
  Zr4      1.0000 0.13870  0.22895  0.42080  Biso   1.000  Zr
  Zr5      1.0000 0.13877  0.22864  0.92129  Biso   1.000  Zr
  Zr6      1.0000 0.13869  0.72909  0.42097  Biso   1.000  Zr
  Zr7      1.0000 0.13873  0.72913  0.92106  Biso   1.000  Zr
  Zr8      1.0000 0.36120  0.27096  0.17099  Biso   1.000  Zr
  Zr9      1.0000 0.36122  0.27108  0.67104  Biso   1.000  Zr
  Zr10     1.0000 0.36101  0.77125  0.17099  Biso   1.000  Zr
  Zr11     1.0000 0.36130  0.77105  0.67103  Biso   1.000  Zr
  Zr12     1.0000 0.36123  0.47902  0.42105  Biso   1.000  Zr
  Zr13     1.0000 0.36127  0.47900  0.92101  Biso   1.000  Zr
  Zr14     1.0000 0.36117  0.97911  0.42092  Biso   1.000  Zr
  Zr15     1.0000 0.36106  0.97904  0.92116  Biso   1.000  Zr
  Zr16     1.0000 0.63874  0.02106  0.07891  Biso   1.000  Zr
  Zr17     1.0000 0.63875  0.02102  0.57891  Biso   1.000  Zr
  Zr18     1.0000 0.63886  0.52107  0.07901  Biso   1.000  Zr
  Zr19     1.0000 0.63878  0.52103  0.57907  Biso   1.000  Zr
  Zr20     1.0000 0.63880  0.22900  0.32894  Biso   1.000  Zr
  Zr21     1.0000 0.63877  0.22903  0.82903  Biso   1.000  Zr
  Zr22     1.0000 0.63869  0.72900  0.32895  Biso   1.000  Zr
  Zr23     1.0000 0.63881  0.72900  0.82911  Biso   1.000  Zr
  Zr24     1.0000 0.86167  0.27070  0.07914  Biso   1.000  Zr
  Zr25     1.0000 0.86124  0.27101  0.57899  Biso   1.000  Zr
  Zr26     1.0000 0.86160  0.77134  0.07910  Biso   1.000  Zr
  Zr27     1.0000 0.86118  0.77100  0.57898  Biso   1.000  Zr
  Zr28     1.0000 0.86122  0.47901  0.32897  Biso   1.000  Zr
  Zr29     1.0000 0.86132  0.47894  0.82917  Biso   1.000  Zr
  Zr30     1.0000 0.86149  0.97901  0.32878  Biso   1.000  Zr
  Zr31     1.0000 0.86123  0.97899  0.82893  Biso   1.000  Zr
  O1       1.0000 0.03328  0.16515  0.08444  Biso   1.000  O
  O2       1.0000 0.03299  0.16595  0.58382  Biso   1.000  O
  O3       1.0000 0.03310  0.66604  0.08416  Biso   1.000  O
  O4       1.0000 0.03306  0.66612  0.58413  Biso   1.000  O
  O5       1.0000 0.03371  0.08343  0.33348  Biso   1.000  O
  O6       1.0000 0.03296  0.08397  0.83388  Biso   1.000  O
  O7       1.0000 0.03309  0.58381  0.33419  Biso   1.000  O
  O8       1.0000 0.03314  0.58385  0.83428  Biso   1.000  O
  O9       1.0000 0.46695  0.41620  0.08426  Biso   1.000  O
  O10      1.0000 0.46688  0.41625  0.58426  Biso   1.000  O
  O11      1.0000 0.46685  0.91608  0.08415  Biso   1.000  O
  O12      1.0000 0.46687  0.91627  0.58422  Biso   1.000  O
  O13      1.0000 0.46682  0.33369  0.33429  Biso   1.000  O
  O14      1.0000 0.46695  0.33390  0.83421  Biso   1.000  O
  O15      1.0000 0.46656  0.83376  0.33426  Biso   1.000  O
  O16      1.0000 0.46683  0.83381  0.83436  Biso   1.000  O
  O17      1.0000 0.27535  0.12388  0.29416  Biso   1.000  O
  O18      1.0000 0.27576  0.12426  0.79485  Biso   1.000  O
  O19      1.0000 0.27565  0.62449  0.29472  Biso   1.000  O
  O20      1.0000 0.27574  0.62429  0.79472  Biso   1.000  O
  O21      1.0000 0.27514  0.12515  0.04539  Biso   1.000  O
  O22      1.0000 0.27574  0.12582  0.54459  Biso   1.000  O
  O23      1.0000 0.27581  0.62607  0.04465  Biso   1.000  O
  O24      1.0000 0.27574  0.62578  0.54471  Biso   1.000  O
  O25      1.0000 0.22433  0.37427  0.29471  Biso   1.000  O
  O26      1.0000 0.22428  0.37421  0.79477  Biso   1.000  O
  O27      1.0000 0.22361  0.87495  0.29424  Biso   1.000  O
  O28      1.0000 0.22426  0.87430  0.79479  Biso   1.000  O
  O29      1.0000 0.22438  0.37570  0.04472  Biso   1.000  O
  O30      1.0000 0.22423  0.37573  0.54467  Biso   1.000  O
  O31      1.0000 0.22321  0.87664  0.04529  Biso   1.000  O
  O32      1.0000 0.22428  0.87575  0.54460  Biso   1.000  O
  O33      1.0000 0.53308  0.16616  0.16579  Biso   1.000  O
  O34      1.0000 0.53308  0.16621  0.66579  Biso   1.000  O
  O35      1.0000 0.53301  0.66630  0.16577  Biso   1.000  O
  O36      1.0000 0.53314  0.66626  0.66580  Biso   1.000  O
  O37      1.0000 0.53306  0.08383  0.41573  Biso   1.000  O
  O38      1.0000 0.53283  0.08400  0.91592  Biso   1.000  O
  O39      1.0000 0.53309  0.58382  0.41577  Biso   1.000  O
  O40      1.0000 0.53316  0.58378  0.91577  Biso   1.000  O
  O41      1.0000 0.96710  0.41602  0.16588  Biso   1.000  O
  O42      1.0000 0.96698  0.41602  0.66592  Biso   1.000  O
  O43      1.0000 0.96777  0.91637  0.16543  Biso   1.000  O
  O44      1.0000 0.96695  0.91613  0.66571  Biso   1.000  O
  O45      1.0000 0.96688  0.33371  0.41570  Biso   1.000  O
  O46      1.0000 0.96712  0.33367  0.91607  Biso   1.000  O
  O47      1.0000 0.96685  0.83378  0.41573  Biso   1.000  O
  O48      1.0000 0.96683  0.83373  0.91559  Biso   1.000  O
  O49      1.0000 0.77565  0.12423  0.95524  Biso   1.000  O
  O50      1.0000 0.77586  0.12421  0.45515  Biso   1.000  O
  O51      1.0000 0.77583  0.62430  0.95537  Biso   1.000  O
  O52      1.0000 0.77568  0.62425  0.45531  Biso   1.000  O
  O53      1.0000 0.77571  0.12570  0.20523  Biso   1.000  O
  O54      1.0000 0.77571  0.12576  0.70522  Biso   1.000  O
  O55      1.0000 0.77574  0.62581  0.20535  Biso   1.000  O
  O56      1.0000 0.77578  0.62571  0.70538  Biso   1.000  O
  O57      1.0000 0.72445  0.37420  0.95540  Biso   1.000  O
  O58      1.0000 0.72427  0.37425  0.45536  Biso   1.000  O
  O59      1.0000 0.72426  0.87431  0.95532  Biso   1.000  O
  O60      1.0000 0.72423  0.87426  0.45522  Biso   1.000  O
  O61      1.0000 0.72441  0.37569  0.20532  Biso   1.000  O
  O62      1.0000 0.72429  0.37577  0.70538  Biso   1.000  O
  O63      1.0000 0.72464  0.87582  0.20531  Biso   1.000  O
  O64      1.0000 0.72425  0.87576  0.70529  Biso   1.000  O
