data_image0
_cell_length_a       10.0601
_cell_length_b       10.2203
_cell_length_c       10.0601
_cell_angle_alpha    89.9988
_cell_angle_beta     90.0004
_cell_angle_gamma    90.0018

_symmetry_space_group_name_H-M    "P 1"
_symmetry_int_tables_number       1

loop_
  _symmetry_equiv_pos_as_xyz
  'x, y, z'

loop_
  _atom_site_label
  _atom_site_occupancy
  _atom_site_fract_x
  _atom_site_fract_y
  _atom_site_fract_z
  _atom_site_thermal_displace_type
  _atom_site_B_iso_or_equiv
  _atom_site_type_symbol
  Hf1      1.0000 0.12498  0.99999  0.12504  Biso   1.000  Hf
  Zr1      1.0000 0.12498  0.99999  0.62504  Biso   1.000  Zr
  Zr2      1.0000 0.12498  0.49999  0.12504  Biso   1.000  Zr
  Zr3      1.0000 0.12498  0.49999  0.62504  Biso   1.000  Zr
  Zr4      1.0000 0.62498  0.99999  0.12504  Biso   1.000  Zr
  Zr5      1.0000 0.62498  0.99999  0.62504  Biso   1.000  Zr
  Zr6      1.0000 0.62498  0.49999  0.12504  Biso   1.000  Zr
  Zr7      1.0000 0.62498  0.49999  0.62504  Biso   1.000  Zr
  Zr8      1.0000 0.12503  0.24990  0.37495  Biso   1.000  Zr
  Zr9      1.0000 0.12493  0.24990  0.87512  Biso   1.000  Zr
  Zr10     1.0000 0.12493  0.75009  0.37495  Biso   1.000  Zr
  Zr11     1.0000 0.12503  0.75009  0.87512  Biso   1.000  Zr
  Zr12     1.0000 0.62497  0.25000  0.37506  Biso   1.000  Zr
  Zr13     1.0000 0.62499  0.25000  0.87501  Biso   1.000  Zr
  Zr14     1.0000 0.62499  0.74999  0.37506  Biso   1.000  Zr
  Zr15     1.0000 0.62497  0.74999  0.87501  Biso   1.000  Zr
  Zr16     1.0000 0.37490  0.24989  0.12508  Biso   1.000  Zr
  Zr17     1.0000 0.37501  0.25000  0.62503  Biso   1.000  Zr
  Zr18     1.0000 0.37490  0.75009  0.12499  Biso   1.000  Zr
  Zr19     1.0000 0.37501  0.74999  0.62504  Biso   1.000  Zr
  Zr20     1.0000 0.87506  0.24990  0.12499  Biso   1.000  Zr
  Zr21     1.0000 0.87495  0.25000  0.62504  Biso   1.000  Zr
  Zr22     1.0000 0.87507  0.75009  0.12508  Biso   1.000  Zr
  Zr23     1.0000 0.87495  0.74999  0.62503  Biso   1.000  Zr
  Zr24     1.0000 0.37484  0.99985  0.37490  Biso   1.000  Zr
  Zr25     1.0000 0.37484  0.00014  0.87518  Biso   1.000  Zr
  Zr26     1.0000 0.37499  0.50002  0.37506  Biso   1.000  Zr
  Zr27     1.0000 0.37499  0.49996  0.87503  Biso   1.000  Zr
  Zr28     1.0000 0.87512  0.00014  0.37490  Biso   1.000  Zr
  Zr29     1.0000 0.87512  0.99985  0.87518  Biso   1.000  Zr
  Zr30     1.0000 0.87496  0.49996  0.37506  Biso   1.000  Zr
  Zr31     1.0000 0.87496  0.50002  0.87503  Biso   1.000  Zr
  O1       1.0000 0.00016  0.14619  0.00022  Biso   1.000  O
  O2       1.0000 0.99967  0.14630  0.49961  Biso   1.000  O
  O3       1.0000 0.99976  0.64649  0.99981  Biso   1.000  O
  O4       1.0000 0.99988  0.64635  0.49985  Biso   1.000  O
  O5       1.0000 0.49956  0.14630  0.99973  Biso   1.000  O
  O6       1.0000 0.49979  0.14628  0.49984  Biso   1.000  O
  O7       1.0000 0.49980  0.64635  0.99994  Biso   1.000  O
  O8       1.0000 0.49993  0.64627  0.49998  Biso   1.000  O
  O9       1.0000 0.00064  0.10297  0.24936  Biso   1.000  O
  O10      1.0000 0.00011  0.10368  0.74993  Biso   1.000  O
  O11      1.0000 0.00009  0.60363  0.24993  Biso   1.000  O
  O12      1.0000 0.99998  0.60367  0.74989  Biso   1.000  O
  O13      1.0000 0.50008  0.10368  0.24990  Biso   1.000  O
  O14      1.0000 0.50006  0.10369  0.74996  Biso   1.000  O
  O15      1.0000 0.50013  0.60367  0.25003  Biso   1.000  O
  O16      1.0000 0.50003  0.60371  0.74998  Biso   1.000  O
  O17      1.0000 0.99976  0.35350  0.25026  Biso   1.000  O
  O18      1.0000 0.99988  0.35363  0.75023  Biso   1.000  O
  O19      1.0000 0.00016  0.85380  0.24986  Biso   1.000  O
  O20      1.0000 0.99967  0.85368  0.75046  Biso   1.000  O
  O21      1.0000 0.49980  0.35363  0.25014  Biso   1.000  O
  O22      1.0000 0.49992  0.35372  0.75009  Biso   1.000  O
  O23      1.0000 0.49956  0.85368  0.25035  Biso   1.000  O
  O24      1.0000 0.49979  0.85371  0.75024  Biso   1.000  O
  O25      1.0000 0.00008  0.39636  0.00015  Biso   1.000  O
  O26      1.0000 0.99999  0.39631  0.50019  Biso   1.000  O
  O27      1.0000 0.00065  0.89702  0.00071  Biso   1.000  O
  O28      1.0000 0.00011  0.89630  0.50015  Biso   1.000  O
  O29      1.0000 0.50012  0.39631  0.00005  Biso   1.000  O
  O30      1.0000 0.50003  0.39627  0.50009  Biso   1.000  O
  O31      1.0000 0.50008  0.89630  0.00018  Biso   1.000  O
  O32      1.0000 0.50005  0.89629  0.50012  Biso   1.000  O
  O33      1.0000 0.24979  0.14618  0.24986  Biso   1.000  O
  O34      1.0000 0.25028  0.14630  0.75046  Biso   1.000  O
  O35      1.0000 0.25020  0.64649  0.25027  Biso   1.000  O
  O36      1.0000 0.25008  0.64635  0.75023  Biso   1.000  O
  O37      1.0000 0.75039  0.14630  0.25035  Biso   1.000  O
  O38      1.0000 0.75017  0.14628  0.75023  Biso   1.000  O
  O39      1.0000 0.75017  0.64635  0.25015  Biso   1.000  O
  O40      1.0000 0.75003  0.64627  0.75010  Biso   1.000  O
  O41      1.0000 0.24931  0.10296  0.00071  Biso   1.000  O
  O42      1.0000 0.24984  0.10368  0.50015  Biso   1.000  O
  O43      1.0000 0.24988  0.60363  0.00015  Biso   1.000  O
  O44      1.0000 0.24998  0.60367  0.50019  Biso   1.000  O
  O45      1.0000 0.74987  0.10368  0.00018  Biso   1.000  O
  O46      1.0000 0.74990  0.10369  0.50012  Biso   1.000  O
  O47      1.0000 0.74984  0.60367  0.00005  Biso   1.000  O
  O48      1.0000 0.74994  0.60371  0.50009  Biso   1.000  O
  O49      1.0000 0.25020  0.35349  0.99981  Biso   1.000  O
  O50      1.0000 0.25008  0.35363  0.49985  Biso   1.000  O
  O51      1.0000 0.24980  0.85380  0.00022  Biso   1.000  O
  O52      1.0000 0.25028  0.85368  0.49962  Biso   1.000  O
  O53      1.0000 0.75016  0.35363  0.99994  Biso   1.000  O
  O54      1.0000 0.75004  0.35372  0.49998  Biso   1.000  O
  O55      1.0000 0.75040  0.85368  0.99973  Biso   1.000  O
  O56      1.0000 0.75017  0.85371  0.49985  Biso   1.000  O
  O57      1.0000 0.24988  0.39636  0.24993  Biso   1.000  O
  O58      1.0000 0.24998  0.39631  0.74989  Biso   1.000  O
  O59      1.0000 0.24931  0.89702  0.24936  Biso   1.000  O
  O60      1.0000 0.24985  0.89630  0.74993  Biso   1.000  O
  O61      1.0000 0.74984  0.39631  0.25003  Biso   1.000  O
  O62      1.0000 0.74993  0.39627  0.74998  Biso   1.000  O
  O63      1.0000 0.74987  0.89630  0.24990  Biso   1.000  O
  O64      1.0000 0.74990  0.89629  0.74996  Biso   1.000  O
