data_image0
_cell_length_a       10.1773
_cell_length_b       5.19325
_cell_length_c       10.6625
_cell_angle_alpha    89.5786
_cell_angle_beta     91.2157
_cell_angle_gamma    89.9162

_symmetry_space_group_name_H-M    "P 1"
_symmetry_int_tables_number       1

loop_
  _symmetry_equiv_pos_as_xyz
  'x, y, z'

loop_
  _atom_site_label
  _atom_site_occupancy
  _atom_site_fract_x
  _atom_site_fract_y
  _atom_site_fract_z
  _atom_site_thermal_displace_type
  _atom_site_B_iso_or_equiv
  _atom_site_type_symbol
  Zr1      1.0000 0.13528  0.04030  0.17153  Biso   1.000  Zr
  Zr2      1.0000 0.13411  0.45227  0.42517  Biso   1.000  Zr
  Zr3      1.0000 0.34794  0.53804  0.18920  Biso   1.000  Zr
  Zr4      1.0000 0.36284  0.95598  0.42757  Biso   1.000  Zr
  Zr5      1.0000 0.64542  0.06491  0.07473  Biso   1.000  Zr
  Zr6      1.0000 0.63762  0.45375  0.33408  Biso   1.000  Zr
  Zr7      1.0000 0.86490  0.54651  0.07607  Biso   1.000  Zr
  Zr8      1.0000 0.86065  0.95688  0.32927  Biso   1.000  Zr
  O1       1.0000 0.03373  0.32353  0.08034  Biso   1.000  O
  O2       1.0000 0.02822  0.17561  0.32979  Biso   1.000  O
  O3       1.0000 0.45468  0.87250  0.09699  Biso   1.000  O
  O4       1.0000 0.46796  0.68083  0.33468  Biso   1.000  O
  O5       1.0000 0.26631  0.24949  0.30025  Biso   1.000  O
  O6       1.0000 0.27653  0.25040  0.04682  Biso   1.000  O
  O7       1.0000 0.22115  0.74940  0.30230  Biso   1.000  O
  O8       1.0000 0.22412  0.74722  0.05095  Biso   1.000  O
  O9       1.0000 0.51314  0.28560  0.20476  Biso   1.000  O
  O10      1.0000 0.52779  0.18326  0.43333  Biso   1.000  O
  O11      1.0000 0.96876  0.82346  0.17223  Biso   1.000  O
  O12      1.0000 0.96752  0.67344  0.42088  Biso   1.000  O
  O13      1.0000 0.77449  0.24503  0.45215  Biso   1.000  O
  O14      1.0000 0.77435  0.26218  0.20312  Biso   1.000  O
  O15      1.0000 0.72662  0.74699  0.45919  Biso   1.000  O
  O16      1.0000 0.72416  0.76063  0.21158  Biso   1.000  O
  Zr9      1.0000 0.14199  0.03721  0.67240  Biso   1.000  Zr
  Zr10     1.0000 0.14284  0.45900  0.92312  Biso   1.000  Zr
  Zr11     1.0000 0.36214  0.53742  0.67297  Biso   1.000  Zr
  Zr12     1.0000 0.36066  0.96186  0.92162  Biso   1.000  Zr
  Zr13     1.0000 0.64126  0.03380  0.57754  Biso   1.000  Zr
  Zr14     1.0000 0.64465  0.44419  0.81244  Biso   1.000  Zr
  Zr15     1.0000 0.86499  0.54144  0.57937  Biso   1.000  Zr
  Zr16     1.0000 0.87232  0.96404  0.82828  Biso   1.000  Zr
  O17      1.0000 0.03179  0.31934  0.58072  Biso   1.000  O
  O18      1.0000 0.04082  0.17356  0.82958  Biso   1.000  O
  O19      1.0000 0.47245  0.81209  0.58084  Biso   1.000  O
  O20      1.0000 0.46883  0.66512  0.82588  Biso   1.000  O
  O21      1.0000 0.27951  0.24612  0.79621  Biso   1.000  O
  O22      1.0000 0.27346  0.24494  0.54743  Biso   1.000  O
  O23      1.0000 0.22802  0.74605  0.79747  Biso   1.000  O
  O24      1.0000 0.22706  0.74678  0.54831  Biso   1.000  O
  O25      1.0000 0.53100  0.31120  0.66913  Biso   1.000  O
  O26      1.0000 0.53988  0.12231  0.90462  Biso   1.000  O
  O27      1.0000 0.97397  0.82062  0.66790  Biso   1.000  O
  O28      1.0000 0.97898  0.67538  0.91892  Biso   1.000  O
  O29      1.0000 0.79080  0.26759  0.93992  Biso   1.000  O
  O30      1.0000 0.77977  0.23953  0.69569  Biso   1.000  O
  O31      1.0000 0.75480  0.80179  0.96257  Biso   1.000  O
  O32      1.0000 0.73172  0.74118  0.70774  Biso   1.000  O
  Hg1      1.0000 0.56673  0.54957  0.03761  Biso   1.000  Hg
