data_image0
_cell_length_a       10.144
_cell_length_b       10.2968
_cell_length_c       5.25929
_cell_angle_alpha    89.9106
_cell_angle_beta     90.0175
_cell_angle_gamma    89.9816

_symmetry_space_group_name_H-M    "P 1"
_symmetry_int_tables_number       1

loop_
  _symmetry_equiv_pos_as_xyz
  'x, y, z'

loop_
  _atom_site_label
  _atom_site_occupancy
  _atom_site_fract_x
  _atom_site_fract_y
  _atom_site_fract_z
  _atom_site_thermal_displace_type
  _atom_site_B_iso_or_equiv
  _atom_site_type_symbol
  In1      1.0000 0.13774  0.01611  0.34334  Biso   1.000  In
  Zr1      1.0000 0.13999  0.52122  0.34329  Biso   1.000  Zr
  Zr2      1.0000 0.14073  0.22796  0.84316  Biso   1.000  Zr
  Zr3      1.0000 0.14111  0.73028  0.84238  Biso   1.000  Zr
  Zr4      1.0000 0.35876  0.26882  0.34302  Biso   1.000  Zr
  Zr5      1.0000 0.36152  0.77169  0.34174  Biso   1.000  Zr
  Zr6      1.0000 0.36086  0.47835  0.84357  Biso   1.000  Zr
  Zr7      1.0000 0.36041  0.98029  0.84141  Biso   1.000  Zr
  Zr8      1.0000 0.63877  0.02109  0.15780  Biso   1.000  Zr
  Zr9      1.0000 0.63846  0.52013  0.15635  Biso   1.000  Zr
  Zr10     1.0000 0.63849  0.22964  0.65679  Biso   1.000  Zr
  Zr11     1.0000 0.63856  0.72906  0.65631  Biso   1.000  Zr
  Zr12     1.0000 0.86171  0.27036  0.15626  Biso   1.000  Zr
  Zr13     1.0000 0.86046  0.77075  0.15724  Biso   1.000  Zr
  Zr14     1.0000 0.86085  0.47949  0.65666  Biso   1.000  Zr
  Zr15     1.0000 0.85915  0.97962  0.65838  Biso   1.000  Zr
  O1       1.0000 0.03196  0.16818  0.16532  Biso   1.000  O
  O2       1.0000 0.03207  0.66414  0.16597  Biso   1.000  O
  O3       1.0000 0.02736  0.08756  0.67983  Biso   1.000  O
  O4       1.0000 0.03167  0.58655  0.66562  Biso   1.000  O
  O5       1.0000 0.46852  0.41231  0.16453  Biso   1.000  O
  O6       1.0000 0.46986  0.91350  0.16486  Biso   1.000  O
  O7       1.0000 0.46859  0.33683  0.66437  Biso   1.000  O
  O8       1.0000 0.46931  0.83656  0.66437  Biso   1.000  O
  O9       1.0000 0.27825  0.12566  0.59605  Biso   1.000  O
  O10      1.0000 0.27566  0.62344  0.59096  Biso   1.000  O
  O11      1.0000 0.27994  0.12906  0.08470  Biso   1.000  O
  O12      1.0000 0.27547  0.62483  0.09133  Biso   1.000  O
  O13      1.0000 0.22473  0.37459  0.59099  Biso   1.000  O
  O14      1.0000 0.22726  0.87128  0.58991  Biso   1.000  O
  O15      1.0000 0.22447  0.37704  0.09162  Biso   1.000  O
  O16      1.0000 0.22908  0.87233  0.08390  Biso   1.000  O
  O17      1.0000 0.53219  0.16431  0.33438  Biso   1.000  O
  O18      1.0000 0.53157  0.66215  0.33623  Biso   1.000  O
  O19      1.0000 0.53310  0.08580  0.83370  Biso   1.000  O
  O20      1.0000 0.53089  0.58656  0.83640  Biso   1.000  O
  O21      1.0000 0.96806  0.41534  0.33297  Biso   1.000  O
  O22      1.0000 0.96038  0.91310  0.33348  Biso   1.000  O
  O23      1.0000 0.96842  0.33762  0.83358  Biso   1.000  O
  O24      1.0000 0.96857  0.83570  0.83289  Biso   1.000  O
  O25      1.0000 0.77425  0.12516  0.91093  Biso   1.000  O
  O26      1.0000 0.77434  0.62362  0.90755  Biso   1.000  O
  O27      1.0000 0.77446  0.12615  0.41068  Biso   1.000  O
  O28      1.0000 0.77487  0.62574  0.40802  Biso   1.000  O
  O29      1.0000 0.72479  0.37460  0.90818  Biso   1.000  O
  O30      1.0000 0.72499  0.87408  0.90983  Biso   1.000  O
  O31      1.0000 0.72546  0.37594  0.40878  Biso   1.000  O
  O32      1.0000 0.72189  0.87540  0.41035  Biso   1.000  O
