data_image0
_cell_length_a       10.0931
_cell_length_b       5.13289
_cell_length_c       10.5034
_cell_angle_alpha    90.0342
_cell_angle_beta     90.572
_cell_angle_gamma    89.3696

_symmetry_space_group_name_H-M    "P 1"
_symmetry_int_tables_number       1

loop_
  _symmetry_equiv_pos_as_xyz
  'x, y, z'

loop_
  _atom_site_label
  _atom_site_occupancy
  _atom_site_fract_x
  _atom_site_fract_y
  _atom_site_fract_z
  _atom_site_thermal_displace_type
  _atom_site_B_iso_or_equiv
  _atom_site_type_symbol
  Ir1      1.0000 0.12480  0.02290  0.19040  Biso   1.000  Ir
  Zr1      1.0000 0.13808  0.04132  0.66984  Biso   1.000  Zr
  Zr2      1.0000 0.13713  0.45944  0.41986  Biso   1.000  Zr
  Zr3      1.0000 0.14360  0.45900  0.92102  Biso   1.000  Zr
  Zr4      1.0000 0.35698  0.55073  0.16557  Biso   1.000  Zr
  Zr5      1.0000 0.36149  0.54481  0.67116  Biso   1.000  Zr
  Zr6      1.0000 0.36007  0.96011  0.41962  Biso   1.000  Zr
  Zr7      1.0000 0.36055  0.96689  0.92232  Biso   1.000  Zr
  Zr8      1.0000 0.63927  0.04040  0.07734  Biso   1.000  Zr
  Zr9      1.0000 0.63727  0.04162  0.58084  Biso   1.000  Zr
  Zr10     1.0000 0.63480  0.45525  0.32744  Biso   1.000  Zr
  Zr11     1.0000 0.63967  0.45975  0.83011  Biso   1.000  Zr
  Zr12     1.0000 0.86611  0.52773  0.08169  Biso   1.000  Zr
  Zr13     1.0000 0.85962  0.54001  0.58119  Biso   1.000  Zr
  Zr14     1.0000 0.85398  0.95342  0.33239  Biso   1.000  Zr
  Zr15     1.0000 0.86484  0.95428  0.83228  Biso   1.000  Zr
  O1       1.0000 0.04521  0.31225  0.09052  Biso   1.000  O
  O2       1.0000 0.03070  0.32409  0.58001  Biso   1.000  O
  O3       1.0000 0.02703  0.17381  0.33431  Biso   1.000  O
  O4       1.0000 0.03456  0.17170  0.83389  Biso   1.000  O
  O5       1.0000 0.46810  0.83542  0.08307  Biso   1.000  O
  O6       1.0000 0.46526  0.83744  0.58387  Biso   1.000  O
  O7       1.0000 0.46062  0.66055  0.33546  Biso   1.000  O
  O8       1.0000 0.46870  0.67270  0.83225  Biso   1.000  O
  O9       1.0000 0.27048  0.23870  0.28267  Biso   1.000  O
  O10      1.0000 0.27510  0.24581  0.78656  Biso   1.000  O
  O11      1.0000 0.30030  0.30609  0.02337  Biso   1.000  O
  O12      1.0000 0.27500  0.25443  0.53923  Biso   1.000  O
  O13      1.0000 0.21581  0.74619  0.29427  Biso   1.000  O
  O14      1.0000 0.22569  0.74807  0.79662  Biso   1.000  O
  O15      1.0000 0.21775  0.79331  0.04944  Biso   1.000  O
  O16      1.0000 0.22343  0.75238  0.54402  Biso   1.000  O
  O17      1.0000 0.53440  0.33762  0.16338  Biso   1.000  O
  O18      1.0000 0.53423  0.33756  0.66360  Biso   1.000  O
  O19      1.0000 0.53206  0.16237  0.41324  Biso   1.000  O
  O20      1.0000 0.53844  0.16266  0.91193  Biso   1.000  O
  O21      1.0000 0.96818  0.82020  0.16759  Biso   1.000  O
  O22      1.0000 0.96917  0.82112  0.67123  Biso   1.000  O
  O23      1.0000 0.96552  0.67407  0.41999  Biso   1.000  O
  O24      1.0000 0.96920  0.66385  0.92368  Biso   1.000  O
  O25      1.0000 0.77977  0.24445  0.95708  Biso   1.000  O
  O26      1.0000 0.77377  0.24538  0.45605  Biso   1.000  O
  O27      1.0000 0.77572  0.24381  0.20587  Biso   1.000  O
  O28      1.0000 0.77686  0.25025  0.70655  Biso   1.000  O
  O29      1.0000 0.72727  0.74342  0.95722  Biso   1.000  O
  O30      1.0000 0.72104  0.74488  0.45654  Biso   1.000  O
  O31      1.0000 0.72680  0.74487  0.20663  Biso   1.000  O
  O32      1.0000 0.72556  0.75290  0.70677  Biso   1.000  O
