data_image0
_cell_length_a       10.1616
_cell_length_b       10.336
_cell_length_c       5.30123
_cell_angle_alpha    89.7968
_cell_angle_beta     90.6985
_cell_angle_gamma    90.1171

_symmetry_space_group_name_H-M    "P 1"
_symmetry_int_tables_number       1

loop_
  _symmetry_equiv_pos_as_xyz
  'x, y, z'

loop_
  _atom_site_label
  _atom_site_occupancy
  _atom_site_fract_x
  _atom_site_fract_y
  _atom_site_fract_z
  _atom_site_thermal_displace_type
  _atom_site_B_iso_or_equiv
  _atom_site_type_symbol
  Zr1      1.0000 0.13791  0.02035  0.34802  Biso   1.000  Zr
  Zr2      1.0000 0.13543  0.22770  0.85327  Biso   1.000  Zr
  Zr3      1.0000 0.34915  0.26860  0.36276  Biso   1.000  Zr
  Zr4      1.0000 0.36256  0.48127  0.84452  Biso   1.000  Zr
  Zr5      1.0000 0.64808  0.01416  0.14841  Biso   1.000  Zr
  Zr6      1.0000 0.64280  0.22783  0.62203  Biso   1.000  Zr
  Zr7      1.0000 0.85793  0.26849  0.15735  Biso   1.000  Zr
  Zr8      1.0000 0.86899  0.48183  0.66280  Biso   1.000  Zr
  O1       1.0000 0.02955  0.16137  0.16632  Biso   1.000  O
  O2       1.0000 0.03279  0.08630  0.66328  Biso   1.000  O
  O3       1.0000 0.45931  0.43526  0.19013  Biso   1.000  O
  O4       1.0000 0.47167  0.34031  0.65103  Biso   1.000  O
  O5       1.0000 0.27074  0.12606  0.60364  Biso   1.000  O
  O6       1.0000 0.27013  0.12208  0.09810  Biso   1.000  O
  O7       1.0000 0.22189  0.37615  0.60352  Biso   1.000  O
  O8       1.0000 0.22444  0.37467  0.09612  Biso   1.000  O
  O9       1.0000 0.51076  0.13465  0.36702  Biso   1.000  O
  O10      1.0000 0.53153  0.09495  0.85322  Biso   1.000  O
  O11      1.0000 0.97223  0.41243  0.33968  Biso   1.000  O
  O12      1.0000 0.96534  0.33695  0.84425  Biso   1.000  O
  O13      1.0000 0.78434  0.11954  0.89006  Biso   1.000  O
  O14      1.0000 0.78067  0.11904  0.40221  Biso   1.000  O
  O15      1.0000 0.71505  0.37224  0.91596  Biso   1.000  O
  O16      1.0000 0.73896  0.38344  0.42415  Biso   1.000  O
  Zr9      1.0000 0.14050  0.52024  0.34216  Biso   1.000  Zr
  Zr10     1.0000 0.14236  0.72924  0.84417  Biso   1.000  Zr
  Zr11     1.0000 0.36494  0.77307  0.34612  Biso   1.000  Zr
  Zr12     1.0000 0.36193  0.97811  0.85075  Biso   1.000  Zr
  Zr13     1.0000 0.64172  0.52744  0.16567  Biso   1.000  Zr
  Zr14     1.0000 0.64122  0.72976  0.65867  Biso   1.000  Zr
  Zr15     1.0000 0.86699  0.76917  0.16041  Biso   1.000  Zr
  Zr16     1.0000 0.86519  0.97638  0.65915  Biso   1.000  Zr
  O17      1.0000 0.03489  0.66086  0.15966  Biso   1.000  O
  O18      1.0000 0.03586  0.58966  0.65815  Biso   1.000  O
  O19      1.0000 0.47421  0.90583  0.14890  Biso   1.000  O
  O20      1.0000 0.47386  0.84402  0.65685  Biso   1.000  O
  O21      1.0000 0.27904  0.62467  0.59138  Biso   1.000  O
  O22      1.0000 0.27688  0.62625  0.08924  Biso   1.000  O
  O23      1.0000 0.22890  0.87464  0.59542  Biso   1.000  O
  O24      1.0000 0.22790  0.87525  0.09515  Biso   1.000  O
  O25      1.0000 0.53561  0.66789  0.34262  Biso   1.000  O
  O26      1.0000 0.53400  0.58828  0.84082  Biso   1.000  O
  O27      1.0000 0.97317  0.90950  0.33962  Biso   1.000  O
  O28      1.0000 0.97263  0.83573  0.84177  Biso   1.000  O
  O29      1.0000 0.77844  0.62326  0.91226  Biso   1.000  O
  O30      1.0000 0.77848  0.62810  0.41314  Biso   1.000  O
  O31      1.0000 0.72982  0.87145  0.91236  Biso   1.000  O
  O32      1.0000 0.73102  0.87283  0.41289  Biso   1.000  O
  Ir1      1.0000 0.56688  0.26289  0.10540  Biso   1.000  Ir
