data_image0
_cell_length_a       5.00795
_cell_length_b       10.4417
_cell_length_c       10.0647
_cell_angle_alpha    90.3467
_cell_angle_beta     89.3006
_cell_angle_gamma    90.423

_symmetry_space_group_name_H-M    "P 1"
_symmetry_int_tables_number       1

loop_
  _symmetry_equiv_pos_as_xyz
  'x, y, z'

loop_
  _atom_site_label
  _atom_site_occupancy
  _atom_site_fract_x
  _atom_site_fract_y
  _atom_site_fract_z
  _atom_site_thermal_displace_type
  _atom_site_B_iso_or_equiv
  _atom_site_type_symbol
  Ir1      1.0000 0.24939  0.03855  0.10551  Biso   1.000  Ir
  Zr1      1.0000 0.26500  0.01479  0.62439  Biso   1.000  Zr
  Zr2      1.0000 0.26747  0.51492  0.12790  Biso   1.000  Zr
  Zr3      1.0000 0.26792  0.51744  0.62546  Biso   1.000  Zr
  Zr4      1.0000 0.26549  0.23030  0.37676  Biso   1.000  Zr
  Zr5      1.0000 0.26188  0.23889  0.87101  Biso   1.000  Zr
  Zr6      1.0000 0.27846  0.73514  0.37622  Biso   1.000  Zr
  Zr7      1.0000 0.26294  0.73638  0.87958  Biso   1.000  Zr
  Zr8      1.0000 0.72490  0.26637  0.12484  Biso   1.000  Zr
  Zr9      1.0000 0.73178  0.26525  0.62374  Biso   1.000  Zr
  Zr10     1.0000 0.74571  0.76298  0.12426  Biso   1.000  Zr
  Zr11     1.0000 0.73734  0.76707  0.62596  Biso   1.000  Zr
  Zr12     1.0000 0.73436  0.48376  0.37656  Biso   1.000  Zr
  Zr13     1.0000 0.72974  0.48723  0.87502  Biso   1.000  Zr
  Zr14     1.0000 0.73774  0.98344  0.37115  Biso   1.000  Zr
  Zr15     1.0000 0.71612  0.98239  0.87551  Biso   1.000  Zr
  O1       1.0000 0.05543  0.18305  0.19658  Biso   1.000  O
  O2       1.0000 0.07060  0.18551  0.69372  Biso   1.000  O
  O3       1.0000 0.07700  0.68365  0.19828  Biso   1.000  O
  O4       1.0000 0.06894  0.68341  0.69856  Biso   1.000  O
  O5       1.0000 0.06994  0.06625  0.44893  Biso   1.000  O
  O6       1.0000 0.06749  0.06349  0.93605  Biso   1.000  O
  O7       1.0000 0.07266  0.56566  0.44667  Biso   1.000  O
  O8       1.0000 0.06328  0.56861  0.94974  Biso   1.000  O
  O9       1.0000 0.92859  0.43094  0.19549  Biso   1.000  O
  O10      1.0000 0.93026  0.43305  0.69639  Biso   1.000  O
  O11      1.0000 0.96717  0.93891  0.19034  Biso   1.000  O
  O12      1.0000 0.92676  0.93447  0.69648  Biso   1.000  O
  O13      1.0000 0.92943  0.31560  0.44391  Biso   1.000  O
  O14      1.0000 0.92321  0.31605  0.94498  Biso   1.000  O
  O15      1.0000 0.94311  0.81894  0.44888  Biso   1.000  O
  O16      1.0000 0.91398  0.81710  0.94013  Biso   1.000  O
  O17      1.0000 0.51328  0.10508  0.24262  Biso   1.000  O
  O18      1.0000 0.53733  0.11761  0.74674  Biso   1.000  O
  O19      1.0000 0.54121  0.60811  0.24880  Biso   1.000  O
  O20      1.0000 0.53600  0.61797  0.75083  Biso   1.000  O
  O21      1.0000 0.54378  0.13300  0.49413  Biso   1.000  O
  O22      1.0000 0.53054  0.13502  0.99535  Biso   1.000  O
  O23      1.0000 0.54316  0.63377  0.49995  Biso   1.000  O
  O24      1.0000 0.53380  0.63573  0.00015  Biso   1.000  O
  O25      1.0000 0.46089  0.38237  0.49976  Biso   1.000  O
  O26      1.0000 0.45727  0.38491  0.99841  Biso   1.000  O
  O27      1.0000 0.46865  0.88448  0.50231  Biso   1.000  O
  O28      1.0000 0.44619  0.89028  0.00945  Biso   1.000  O
  O29      1.0000 0.45877  0.36182  0.24940  Biso   1.000  O
  O30      1.0000 0.46050  0.36826  0.74837  Biso   1.000  O
  O31      1.0000 0.51643  0.85002  0.25990  Biso   1.000  O
  O32      1.0000 0.45733  0.86673  0.75231  Biso   1.000  O
