data_image0
_cell_length_a       5.14514
_cell_length_b       10.3997
_cell_length_c       10.654
_cell_angle_alpha    89.164
_cell_angle_beta     80.3081
_cell_angle_gamma    90.4629

_symmetry_space_group_name_H-M    "P 1"
_symmetry_int_tables_number       1

loop_
  _symmetry_equiv_pos_as_xyz
  'x, y, z'

loop_
  _atom_site_label
  _atom_site_occupancy
  _atom_site_fract_x
  _atom_site_fract_y
  _atom_site_fract_z
  _atom_site_thermal_displace_type
  _atom_site_B_iso_or_equiv
  _atom_site_type_symbol
  K1       1.0000 0.20933  0.98729  0.13337  Biso   1.000  K
  Zr1      1.0000 0.27774  0.02452  0.65147  Biso   1.000  Zr
  Zr2      1.0000 0.27340  0.51147  0.14453  Biso   1.000  Zr
  Zr3      1.0000 0.28518  0.52342  0.64325  Biso   1.000  Zr
  Zr4      1.0000 0.27411  0.23149  0.39749  Biso   1.000  Zr
  Zr5      1.0000 0.28362  0.22816  0.89962  Biso   1.000  Zr
  Zr6      1.0000 0.27357  0.72428  0.39536  Biso   1.000  Zr
  Zr7      1.0000 0.29669  0.73013  0.88482  Biso   1.000  Zr
  Zr8      1.0000 0.70884  0.26157  0.10600  Biso   1.000  Zr
  Zr9      1.0000 0.72222  0.27483  0.60653  Biso   1.000  Zr
  Zr10     1.0000 0.73785  0.74028  0.07459  Biso   1.000  Zr
  Zr11     1.0000 0.73083  0.77634  0.60152  Biso   1.000  Zr
  Zr12     1.0000 0.71791  0.47957  0.35210  Biso   1.000  Zr
  Zr13     1.0000 0.73287  0.47248  0.84938  Biso   1.000  Zr
  Zr14     1.0000 0.71535  0.99882  0.37505  Biso   1.000  Zr
  Zr15     1.0000 0.72476  0.98144  0.85692  Biso   1.000  Zr
  O1       1.0000 0.06571  0.18941  0.07572  Biso   1.000  O
  O2       1.0000 0.06274  0.17080  0.58469  Biso   1.000  O
  O3       1.0000 0.09439  0.66726  0.07159  Biso   1.000  O
  O4       1.0000 0.06999  0.66477  0.57242  Biso   1.000  O
  O5       1.0000 0.06036  0.08785  0.34903  Biso   1.000  O
  O6       1.0000 0.07623  0.08361  0.83045  Biso   1.000  O
  O7       1.0000 0.06235  0.58629  0.32428  Biso   1.000  O
  O8       1.0000 0.06731  0.58859  0.82172  Biso   1.000  O
  O9       1.0000 0.91599  0.42170  0.17009  Biso   1.000  O
  O10      1.0000 0.94001  0.41811  0.66927  Biso   1.000  O
  O11      1.0000 0.74304  0.88828  0.20285  Biso   1.000  O
  O12      1.0000 0.93994  0.91430  0.67578  Biso   1.000  O
  O13      1.0000 0.92892  0.33884  0.42329  Biso   1.000  O
  O14      1.0000 0.93964  0.33631  0.91510  Biso   1.000  O
  O15      1.0000 0.94984  0.84149  0.42087  Biso   1.000  O
  O16      1.0000 0.97547  0.84535  0.92736  Biso   1.000  O
  O17      1.0000 0.57612  0.14112  0.26005  Biso   1.000  O
  O18      1.0000 0.55593  0.12956  0.74184  Biso   1.000  O
  O19      1.0000 0.54076  0.63083  0.23435  Biso   1.000  O
  O20      1.0000 0.55758  0.63117  0.73305  Biso   1.000  O
  O21      1.0000 0.53798  0.13009  0.50350  Biso   1.000  O
  O22      1.0000 0.57180  0.12495  0.98246  Biso   1.000  O
  O23      1.0000 0.55238  0.62514  0.48516  Biso   1.000  O
  O24      1.0000 0.55176  0.60736  0.98130  Biso   1.000  O
  O25      1.0000 0.45154  0.37574  0.00935  Biso   1.000  O
  O26      1.0000 0.45041  0.38349  0.51004  Biso   1.000  O
  O27      1.0000 0.49707  0.85539  0.98773  Biso   1.000  O
  O28      1.0000 0.45771  0.88395  0.51509  Biso   1.000  O
  O29      1.0000 0.43541  0.37615  0.26125  Biso   1.000  O
  O30      1.0000 0.45436  0.37313  0.75804  Biso   1.000  O
  O31      1.0000 0.47910  0.87907  0.27268  Biso   1.000  O
  O32      1.0000 0.45938  0.87448  0.75402  Biso   1.000  O
