data_image0
_cell_length_a       10.1585
_cell_length_b       5.19785
_cell_length_c       10.5996
_cell_angle_alpha    89.4639
_cell_angle_beta     90.3636
_cell_angle_gamma    90.327

_symmetry_space_group_name_H-M    "P 1"
_symmetry_int_tables_number       1

loop_
  _symmetry_equiv_pos_as_xyz
  'x, y, z'

loop_
  _atom_site_label
  _atom_site_occupancy
  _atom_site_fract_x
  _atom_site_fract_y
  _atom_site_fract_z
  _atom_site_thermal_displace_type
  _atom_site_B_iso_or_equiv
  _atom_site_type_symbol
  K1       1.0000 0.10655  0.98184  0.15539  Biso   1.000  K
  Zr1      1.0000 0.14118  0.04503  0.67074  Biso   1.000  Zr
  Zr2      1.0000 0.14395  0.45644  0.42043  Biso   1.000  Zr
  Zr3      1.0000 0.14830  0.45665  0.92015  Biso   1.000  Zr
  Zr4      1.0000 0.35867  0.52481  0.16954  Biso   1.000  Zr
  Zr5      1.0000 0.35943  0.54473  0.66894  Biso   1.000  Zr
  Zr6      1.0000 0.35903  0.95609  0.41507  Biso   1.000  Zr
  Zr7      1.0000 0.36226  0.95723  0.92059  Biso   1.000  Zr
  Zr8      1.0000 0.63435  0.04761  0.07486  Biso   1.000  Zr
  Zr9      1.0000 0.63482  0.04188  0.58331  Biso   1.000  Zr
  Zr10     1.0000 0.63583  0.45525  0.33286  Biso   1.000  Zr
  Zr11     1.0000 0.63755  0.46325  0.82569  Biso   1.000  Zr
  Zr12     1.0000 0.86673  0.49711  0.06115  Biso   1.000  Zr
  Zr13     1.0000 0.86450  0.54573  0.58279  Biso   1.000  Zr
  Zr14     1.0000 0.86077  0.98798  0.35398  Biso   1.000  Zr
  Zr15     1.0000 0.86294  0.95316  0.82656  Biso   1.000  Zr
  O1       1.0000 0.04551  0.41121  0.09088  Biso   1.000  O
  O2       1.0000 0.03779  0.35329  0.59633  Biso   1.000  O
  O3       1.0000 0.02651  0.16891  0.36169  Biso   1.000  O
  O4       1.0000 0.03675  0.15302  0.84180  Biso   1.000  O
  O5       1.0000 0.48012  0.81314  0.07713  Biso   1.000  O
  O6       1.0000 0.46976  0.81920  0.57596  Biso   1.000  O
  O7       1.0000 0.48290  0.69582  0.32148  Biso   1.000  O
  O8       1.0000 0.47257  0.68295  0.82328  Biso   1.000  O
  O9       1.0000 0.28444  0.24927  0.30287  Biso   1.000  O
  O10      1.0000 0.27675  0.24933  0.79135  Biso   1.000  O
  O11      1.0000 0.28904  0.24666  0.03543  Biso   1.000  O
  O12      1.0000 0.27620  0.25107  0.54524  Biso   1.000  O
  O13      1.0000 0.23890  0.72003  0.30090  Biso   1.000  O
  O14      1.0000 0.22613  0.74856  0.79001  Biso   1.000  O
  O15      1.0000 0.24946  0.71951  0.03014  Biso   1.000  O
  O16      1.0000 0.22470  0.75751  0.54438  Biso   1.000  O
  O17      1.0000 0.53490  0.32130  0.17098  Biso   1.000  O
  O18      1.0000 0.52940  0.32403  0.66847  Biso   1.000  O
  O19      1.0000 0.53333  0.17829  0.42062  Biso   1.000  O
  O20      1.0000 0.53384  0.18057  0.91821  Biso   1.000  O
  O21      1.0000 0.86766  0.82867  0.17023  Biso   1.000  O
  O22      1.0000 0.96472  0.85192  0.65927  Biso   1.000  O
  O23      1.0000 0.96718  0.67034  0.41435  Biso   1.000  O
  O24      1.0000 0.96832  0.65611  0.90360  Biso   1.000  O
  O25      1.0000 0.77652  0.22977  0.95185  Biso   1.000  O
  O26      1.0000 0.77104  0.26018  0.46548  Biso   1.000  O
  O27      1.0000 0.77689  0.27043  0.21244  Biso   1.000  O
  O28      1.0000 0.77454  0.25437  0.70797  Biso   1.000  O
  O29      1.0000 0.72640  0.73815  0.95255  Biso   1.000  O
  O30      1.0000 0.72590  0.75505  0.46071  Biso   1.000  O
  O31      1.0000 0.73076  0.77927  0.20773  Biso   1.000  O
  O32      1.0000 0.72680  0.75087  0.70444  Biso   1.000  O
