data_image0
_cell_length_a       10.0999
_cell_length_b       10.4501
_cell_length_c       10.1403
_cell_angle_alpha    89.6564
_cell_angle_beta     90.0376
_cell_angle_gamma    90.3635

_symmetry_space_group_name_H-M    "P 1"
_symmetry_int_tables_number       1

loop_
  _symmetry_equiv_pos_as_xyz
  'x, y, z'

loop_
  _atom_site_label
  _atom_site_occupancy
  _atom_site_fract_x
  _atom_site_fract_y
  _atom_site_fract_z
  _atom_site_thermal_displace_type
  _atom_site_B_iso_or_equiv
  _atom_site_type_symbol
  Zr1      1.0000 0.14175  0.99138  0.11295  Biso   1.000  Zr
  Zr2      1.0000 0.12856  0.23047  0.39265  Biso   1.000  Zr
  Zr3      1.0000 0.37183  0.26818  0.12058  Biso   1.000  Zr
  Zr4      1.0000 0.36636  0.48498  0.37399  Biso   1.000  Zr
  O1       1.0000 0.96914  0.17121  0.26620  Biso   1.000  O
  O2       1.0000 0.03695  0.06345  0.46528  Biso   1.000  O
  O3       1.0000 0.46395  0.43623  0.19457  Biso   1.000  O
  O4       1.0000 0.46757  0.32112  0.44833  Biso   1.000  O
  O5       1.0000 0.24375  0.11116  0.24543  Biso   1.000  O
  O6       1.0000 0.27492  0.13289  0.49747  Biso   1.000  O
  O7       1.0000 0.23528  0.38422  0.50005  Biso   1.000  O
  O8       1.0000 0.23133  0.36510  0.25323  Biso   1.000  O
  Zr5      1.0000 0.13956  0.00818  0.62729  Biso   1.000  Zr
  Zr6      1.0000 0.13240  0.23385  0.85557  Biso   1.000  Zr
  Zr7      1.0000 0.37254  0.26612  0.62387  Biso   1.000  Zr
  Zr8      1.0000 0.36900  0.48688  0.87214  Biso   1.000  Zr
  O9       1.0000 0.03691  0.17940  0.69167  Biso   1.000  O
  O10      1.0000 0.03627  0.06711  0.94917  Biso   1.000  O
  O11      1.0000 0.47029  0.43281  0.69655  Biso   1.000  O
  O12      1.0000 0.46832  0.31806  0.94432  Biso   1.000  O
  O13      1.0000 0.27127  0.11467  0.74506  Biso   1.000  O
  O14      1.0000 0.27327  0.13010  0.99274  Biso   1.000  O
  O15      1.0000 0.23494  0.39306  0.99412  Biso   1.000  O
  O16      1.0000 0.23645  0.36491  0.74445  Biso   1.000  O
  Zr9      1.0000 0.13504  0.52502  0.12531  Biso   1.000  Zr
  Zr10     1.0000 0.13359  0.73589  0.37614  Biso   1.000  Zr
  Zr11     1.0000 0.37251  0.76041  0.12173  Biso   1.000  Zr
  Zr12     1.0000 0.36536  0.98783  0.36951  Biso   1.000  Zr
  O17      1.0000 0.03399  0.68257  0.19811  Biso   1.000  O
  O18      1.0000 0.03471  0.57022  0.44396  Biso   1.000  O
  O19      1.0000 0.45935  0.93375  0.19147  Biso   1.000  O
  O20      1.0000 0.46863  0.82055  0.44266  Biso   1.000  O
  O21      1.0000 0.27205  0.61692  0.24659  Biso   1.000  O
  O22      1.0000 0.26951  0.63425  0.49605  Biso   1.000  O
  O23      1.0000 0.23525  0.88427  0.49430  Biso   1.000  O
  O24      1.0000 0.23427  0.85842  0.24342  Biso   1.000  O
  Zr13     1.0000 0.13280  0.51336  0.62131  Biso   1.000  Zr
  Zr14     1.0000 0.13212  0.73212  0.86801  Biso   1.000  Zr
  Zr15     1.0000 0.37194  0.76400  0.61969  Biso   1.000  Zr
  Zr16     1.0000 0.37278  0.98370  0.86995  Biso   1.000  Zr
  O25      1.0000 0.03574  0.68194  0.69109  Biso   1.000  O
  O26      1.0000 0.03321  0.56940  0.94782  Biso   1.000  O
  O27      1.0000 0.47125  0.93177  0.69401  Biso   1.000  O
  O28      1.0000 0.47416  0.82015  0.94719  Biso   1.000  O
  O29      1.0000 0.26833  0.61276  0.74467  Biso   1.000  O
  O30      1.0000 0.26809  0.63687  0.99488  Biso   1.000  O
  O31      1.0000 0.23896  0.87773  0.99020  Biso   1.000  O
  O32      1.0000 0.23923  0.86147  0.74476  Biso   1.000  O
  Zr17     1.0000 0.62767  0.00998  0.11956  Biso   1.000  Zr
  Zr18     1.0000 0.62859  0.23196  0.37933  Biso   1.000  Zr
  Zr19     1.0000 0.83725  0.26230  0.13164  Biso   1.000  Zr
  Zr20     1.0000 0.86857  0.48373  0.37334  Biso   1.000  Zr
  O33      1.0000 0.52154  0.17797  0.20240  Biso   1.000  O
  O34      1.0000 0.53109  0.06801  0.45023  Biso   1.000  O
  O35      1.0000 0.96310  0.42721  0.19235  Biso   1.000  O
  O36      1.0000 0.97448  0.33052  0.46547  Biso   1.000  O
  O37      1.0000 0.74266  0.11084  0.24841  Biso   1.000  O
  O38      1.0000 0.77082  0.13957  0.49667  Biso   1.000  O
  O39      1.0000 0.73448  0.38541  0.49961  Biso   1.000  O
  O40      1.0000 0.72052  0.37049  0.25374  Biso   1.000  O
  Zr21     1.0000 0.63918  0.01447  0.62217  Biso   1.000  Zr
  Zr22     1.0000 0.63470  0.23430  0.87248  Biso   1.000  Zr
  Zr23     1.0000 0.86526  0.26921  0.62809  Biso   1.000  Zr
  Zr24     1.0000 0.86704  0.48200  0.87811  Biso   1.000  Zr
  O41      1.0000 0.53855  0.18260  0.69471  Biso   1.000  O
  O42      1.0000 0.53599  0.06879  0.94262  Biso   1.000  O
  O43      1.0000 0.97051  0.43215  0.70437  Biso   1.000  O
  O44      1.0000 0.95714  0.31151  0.93459  Biso   1.000  O
  O45      1.0000 0.77268  0.11610  0.74766  Biso   1.000  O
  O46      1.0000 0.76886  0.12918  0.99732  Biso   1.000  O
  O47      1.0000 0.72443  0.38420  0.00027  Biso   1.000  O
  O48      1.0000 0.73150  0.36846  0.74878  Biso   1.000  O
  Zr25     1.0000 0.63258  0.51909  0.12658  Biso   1.000  Zr
  Zr26     1.0000 0.63833  0.73866  0.37606  Biso   1.000  Zr
  Zr27     1.0000 0.86556  0.76456  0.12547  Biso   1.000  Zr
  Zr28     1.0000 0.87739  0.00082  0.36225  Biso   1.000  Zr
  O49      1.0000 0.53855  0.68596  0.19728  Biso   1.000  O
  O50      1.0000 0.53501  0.57066  0.44636  Biso   1.000  O
  O51      1.0000 0.96950  0.93165  0.19188  Biso   1.000  O
  O52      1.0000 0.96947  0.82328  0.44409  Biso   1.000  O
  O53      1.0000 0.77052  0.61705  0.24876  Biso   1.000  O
  O54      1.0000 0.77163  0.63581  0.49726  Biso   1.000  O
  O55      1.0000 0.73644  0.88901  0.49520  Biso   1.000  O
  O56      1.0000 0.73406  0.86644  0.24532  Biso   1.000  O
  Zr29     1.0000 0.63648  0.51727  0.62323  Biso   1.000  Zr
  Zr30     1.0000 0.63811  0.73392  0.87299  Biso   1.000  Zr
  Zr31     1.0000 0.86927  0.76943  0.62026  Biso   1.000  Zr
  Zr32     1.0000 0.86888  0.98401  0.87578  Biso   1.000  Zr
  O57      1.0000 0.53616  0.68243  0.69651  Biso   1.000  O
  O58      1.0000 0.53249  0.57162  0.94956  Biso   1.000  O
  O59      1.0000 0.97415  0.92787  0.70530  Biso   1.000  O
  O60      1.0000 0.97330  0.81915  0.95182  Biso   1.000  O
  O61      1.0000 0.77148  0.61626  0.74767  Biso   1.000  O
  O62      1.0000 0.76958  0.63323  0.99855  Biso   1.000  O
  O63      1.0000 0.73491  0.88107  0.99652  Biso   1.000  O
  O64      1.0000 0.73570  0.86655  0.74627  Biso   1.000  O
  K1       1.0000 0.09798  0.25041  0.10833  Biso   1.000  K
