data_image0
_cell_length_a       10.1764
_cell_length_b       10.7097
_cell_length_c       5.27611
_cell_angle_alpha    90.1685
_cell_angle_beta     80.5715
_cell_angle_gamma    93.3174

_symmetry_space_group_name_H-M    "P 1"
_symmetry_int_tables_number       1

loop_
  _symmetry_equiv_pos_as_xyz
  'x, y, z'

loop_
  _atom_site_label
  _atom_site_occupancy
  _atom_site_fract_x
  _atom_site_fract_y
  _atom_site_fract_z
  _atom_site_thermal_displace_type
  _atom_site_B_iso_or_equiv
  _atom_site_type_symbol
  Zr1      1.0000 0.14802  0.01909  0.28588  Biso   1.000  Zr
  Zr2      1.0000 0.12374  0.23171  0.77898  Biso   1.000  Zr
  Zr3      1.0000 0.28810  0.28555  0.17727  Biso   1.000  Zr
  Zr4      1.0000 0.33279  0.49776  0.71141  Biso   1.000  Zr
  O1       1.0000 0.06548  0.19461  0.18256  Biso   1.000  O
  O2       1.0000 0.04659  0.07016  0.65897  Biso   1.000  O
  O3       1.0000 0.43423  0.43621  0.33788  Biso   1.000  O
  O4       1.0000 0.41593  0.35173  0.86565  Biso   1.000  O
  O5       1.0000 0.28517  0.13714  0.46145  Biso   1.000  O
  O6       1.0000 0.27483  0.11690  0.95298  Biso   1.000  O
  O7       1.0000 0.17458  0.40948  0.99592  Biso   1.000  O
  O8       1.0000 0.19177  0.37779  0.51406  Biso   1.000  O
  Zr5      1.0000 0.12352  0.53359  0.29545  Biso   1.000  Zr
  Zr6      1.0000 0.13509  0.73424  0.79394  Biso   1.000  Zr
  Zr7      1.0000 0.36200  0.77612  0.20999  Biso   1.000  Zr
  Zr8      1.0000 0.36931  0.97461  0.71172  Biso   1.000  Zr
  O9       1.0000 0.03093  0.67724  0.17004  Biso   1.000  O
  O10      1.0000 0.02567  0.58149  0.67866  Biso   1.000  O
  O11      1.0000 0.47058  0.92019  0.34208  Biso   1.000  O
  O12      1.0000 0.46506  0.82759  0.84061  Biso   1.000  O
  O13      1.0000 0.26459  0.63966  0.48505  Biso   1.000  O
  O14      1.0000 0.26834  0.63413  0.98474  Biso   1.000  O
  O15      1.0000 0.22873  0.88011  0.01999  Biso   1.000  O
  O16      1.0000 0.22573  0.87421  0.51656  Biso   1.000  O
  Zr9      1.0000 0.66139  0.00191  0.29872  Biso   1.000  Zr
  Zr10     1.0000 0.70610  0.21413  0.83289  Biso   1.000  Zr
  Zr11     1.0000 0.87047  0.26794  0.23117  Biso   1.000  Zr
  Zr12     1.0000 0.84617  0.48057  0.72428  Biso   1.000  Zr
  O17      1.0000 0.57823  0.14793  0.14446  Biso   1.000  O
  O18      1.0000 0.55997  0.06346  0.67222  Biso   1.000  O
  O19      1.0000 0.94760  0.42950  0.35118  Biso   1.000  O
  O20      1.0000 0.92871  0.30505  0.82759  Biso   1.000  O
  O21      1.0000 0.80243  0.12188  0.49608  Biso   1.000  O
  O22      1.0000 0.81961  0.09018  0.01423  Biso   1.000  O
  O23      1.0000 0.71936  0.38277  0.05720  Biso   1.000  O
  O24      1.0000 0.70901  0.36254  0.54874  Biso   1.000  O
  Zr13     1.0000 0.62488  0.52506  0.29841  Biso   1.000  Zr
  Zr14     1.0000 0.63219  0.72355  0.80013  Biso   1.000  Zr
  Zr15     1.0000 0.85910  0.76543  0.21618  Biso   1.000  Zr
  Zr16     1.0000 0.87066  0.96608  0.71468  Biso   1.000  Zr
  O25      1.0000 0.52912  0.67208  0.16952  Biso   1.000  O
  O26      1.0000 0.52360  0.57948  0.66804  Biso   1.000  O
  O27      1.0000 0.96852  0.91818  0.33147  Biso   1.000  O
  O28      1.0000 0.96326  0.82242  0.84009  Biso   1.000  O
  O29      1.0000 0.76846  0.62546  0.49357  Biso   1.000  O
  O30      1.0000 0.76545  0.61955  0.99014  Biso   1.000  O
  O31      1.0000 0.72584  0.86553  0.02538  Biso   1.000  O
  O32      1.0000 0.72960  0.86001  0.52506  Biso   1.000  O
  La1      1.0000 0.49711  0.24984  0.50507  Biso   1.000  La
