data_image0
_cell_length_a       5.03534
_cell_length_b       10.3476
_cell_length_c       10.1243
_cell_angle_alpha    90.1213
_cell_angle_beta     89.88
_cell_angle_gamma    90.1483

_symmetry_space_group_name_H-M    "P 1"
_symmetry_int_tables_number       1

loop_
  _symmetry_equiv_pos_as_xyz
  'x, y, z'

loop_
  _atom_site_label
  _atom_site_occupancy
  _atom_site_fract_x
  _atom_site_fract_y
  _atom_site_fract_z
  _atom_site_thermal_displace_type
  _atom_site_B_iso_or_equiv
  _atom_site_type_symbol
  Li1      1.0000 0.24851  0.00714  0.10867  Biso   1.000  Li
  Zr1      1.0000 0.26552  0.01537  0.62444  Biso   1.000  Zr
  Zr2      1.0000 0.27111  0.51516  0.12561  Biso   1.000  Zr
  Zr3      1.0000 0.26825  0.51666  0.62573  Biso   1.000  Zr
  Zr4      1.0000 0.26746  0.23047  0.37240  Biso   1.000  Zr
  Zr5      1.0000 0.27158  0.23103  0.87636  Biso   1.000  Zr
  Zr6      1.0000 0.27147  0.73775  0.37477  Biso   1.000  Zr
  Zr7      1.0000 0.27497  0.73716  0.87814  Biso   1.000  Zr
  Zr8      1.0000 0.72076  0.26123  0.12532  Biso   1.000  Zr
  Zr9      1.0000 0.72911  0.26572  0.62329  Biso   1.000  Zr
  Zr10     1.0000 0.72749  0.77088  0.12467  Biso   1.000  Zr
  Zr11     1.0000 0.73407  0.76712  0.62511  Biso   1.000  Zr
  Zr12     1.0000 0.72931  0.48506  0.37576  Biso   1.000  Zr
  Zr13     1.0000 0.73102  0.48436  0.87539  Biso   1.000  Zr
  Zr14     1.0000 0.72938  0.98517  0.36548  Biso   1.000  Zr
  Zr15     1.0000 0.72058  0.98363  0.87789  Biso   1.000  Zr
  O1       1.0000 0.05229  0.18286  0.20370  Biso   1.000  O
  O2       1.0000 0.07014  0.18619  0.69296  Biso   1.000  O
  O3       1.0000 0.06256  0.68077  0.19814  Biso   1.000  O
  O4       1.0000 0.07009  0.68383  0.69629  Biso   1.000  O
  O5       1.0000 0.06075  0.06868  0.45038  Biso   1.000  O
  O6       1.0000 0.06728  0.06855  0.92788  Biso   1.000  O
  O7       1.0000 0.06562  0.56787  0.44761  Biso   1.000  O
  O8       1.0000 0.06834  0.56794  0.94681  Biso   1.000  O
  O9       1.0000 0.93393  0.43106  0.19786  Biso   1.000  O
  O10      1.0000 0.93098  0.43385  0.69605  Biso   1.000  O
  O11      1.0000 0.94716  0.92841  0.20000  Biso   1.000  O
  O12      1.0000 0.92952  0.93331  0.69584  Biso   1.000  O
  O13      1.0000 0.93271  0.31932  0.44701  Biso   1.000  O
  O14      1.0000 0.93729  0.31928  0.94728  Biso   1.000  O
  O15      1.0000 0.93814  0.81908  0.44973  Biso   1.000  O
  O16      1.0000 0.93258  0.81747  0.94394  Biso   1.000  O
  O17      1.0000 0.54567  0.12355  0.25007  Biso   1.000  O
  O18      1.0000 0.53989  0.11722  0.74503  Biso   1.000  O
  O19      1.0000 0.53682  0.61423  0.24769  Biso   1.000  O
  O20      1.0000 0.54018  0.61763  0.74879  Biso   1.000  O
  O21      1.0000 0.53550  0.13399  0.49723  Biso   1.000  O
  O22      1.0000 0.55181  0.13596  0.99152  Biso   1.000  O
  O23      1.0000 0.53764  0.63472  0.49813  Biso   1.000  O
  O24      1.0000 0.54128  0.63054  0.99890  Biso   1.000  O
  O25      1.0000 0.46117  0.38437  0.49817  Biso   1.000  O
  O26      1.0000 0.46184  0.38305  0.99845  Biso   1.000  O
  O27      1.0000 0.46512  0.88538  0.49875  Biso   1.000  O
  O28      1.0000 0.46248  0.87837  0.99818  Biso   1.000  O
  O29      1.0000 0.45647  0.36808  0.24794  Biso   1.000  O
  O30      1.0000 0.46166  0.36749  0.74824  Biso   1.000  O
  O31      1.0000 0.47919  0.85884  0.25463  Biso   1.000  O
  O32      1.0000 0.45913  0.86731  0.74704  Biso   1.000  O
