data_image0
_cell_length_a       5.04259
_cell_length_b       10.0696
_cell_length_c       10.0694
_cell_angle_alpha    89.9965
_cell_angle_beta     90.0014
_cell_angle_gamma    89.999

_symmetry_space_group_name_H-M    "P 1"
_symmetry_int_tables_number       1

loop_
  _symmetry_equiv_pos_as_xyz
  'x, y, z'

loop_
  _atom_site_label
  _atom_site_occupancy
  _atom_site_fract_x
  _atom_site_fract_y
  _atom_site_fract_z
  _atom_site_thermal_displace_type
  _atom_site_B_iso_or_equiv
  _atom_site_type_symbol
  Li1      1.0000 0.25082  0.00024  0.12474  Biso   1.000  Li
  Zr1      1.0000 0.25088  0.00022  0.62472  Biso   1.000  Zr
  Zr2      1.0000 0.25086  0.50021  0.12473  Biso   1.000  Zr
  Zr3      1.0000 0.25087  0.50021  0.62472  Biso   1.000  Zr
  Zr4      1.0000 0.25358  0.24771  0.37223  Biso   1.000  Zr
  Zr5      1.0000 0.24814  0.24771  0.87723  Biso   1.000  Zr
  Zr6      1.0000 0.24815  0.75272  0.37223  Biso   1.000  Zr
  Zr7      1.0000 0.25357  0.75272  0.87722  Biso   1.000  Zr
  Zr8      1.0000 0.75085  0.24524  0.12473  Biso   1.000  Zr
  Zr9      1.0000 0.75086  0.25042  0.62473  Biso   1.000  Zr
  Zr10     1.0000 0.75086  0.75518  0.12473  Biso   1.000  Zr
  Zr11     1.0000 0.75087  0.75001  0.62473  Biso   1.000  Zr
  Zr12     1.0000 0.75086  0.00022  0.36976  Biso   1.000  Zr
  Zr13     1.0000 0.75086  0.00022  0.87969  Biso   1.000  Zr
  Zr14     1.0000 0.75087  0.50021  0.37493  Biso   1.000  Zr
  Zr15     1.0000 0.75086  0.50021  0.87452  Biso   1.000  Zr
  O1       1.0000 0.00938  0.12863  0.99629  Biso   1.000  O
  O2       1.0000 0.02633  0.12617  0.50028  Biso   1.000  O
  O3       1.0000 0.02628  0.62463  0.99875  Biso   1.000  O
  O4       1.0000 0.02870  0.62582  0.49909  Biso   1.000  O
  O5       1.0000 0.97972  0.12946  0.25396  Biso   1.000  O
  O6       1.0000 0.97601  0.12412  0.74809  Biso   1.000  O
  O7       1.0000 0.97602  0.62359  0.24860  Biso   1.000  O
  O8       1.0000 0.97277  0.62410  0.74858  Biso   1.000  O
  O9       1.0000 0.02634  0.37580  0.25072  Biso   1.000  O
  O10      1.0000 0.02868  0.37463  0.75037  Biso   1.000  O
  O11      1.0000 0.00940  0.87180  0.25315  Biso   1.000  O
  O12      1.0000 0.02630  0.87427  0.74917  Biso   1.000  O
  O13      1.0000 0.97600  0.37683  0.00086  Biso   1.000  O
  O14      1.0000 0.97272  0.37634  0.50089  Biso   1.000  O
  O15      1.0000 0.97976  0.87096  0.99548  Biso   1.000  O
  O16      1.0000 0.97601  0.87632  0.50136  Biso   1.000  O
  O17      1.0000 0.49231  0.12864  0.25316  Biso   1.000  O
  O18      1.0000 0.47541  0.12616  0.74918  Biso   1.000  O
  O19      1.0000 0.47543  0.62464  0.25070  Biso   1.000  O
  O20      1.0000 0.47307  0.62581  0.75035  Biso   1.000  O
  O21      1.0000 0.52199  0.12946  0.99550  Biso   1.000  O
  O22      1.0000 0.52577  0.12411  0.50137  Biso   1.000  O
  O23      1.0000 0.52571  0.62360  0.00085  Biso   1.000  O
  O24      1.0000 0.52902  0.62409  0.50087  Biso   1.000  O
  O25      1.0000 0.47541  0.37580  0.99874  Biso   1.000  O
  O26      1.0000 0.47303  0.37461  0.49909  Biso   1.000  O
  O27      1.0000 0.49236  0.87179  0.99629  Biso   1.000  O
  O28      1.0000 0.47541  0.87426  0.50029  Biso   1.000  O
  O29      1.0000 0.52576  0.37684  0.24860  Biso   1.000  O
  O30      1.0000 0.52899  0.37633  0.74858  Biso   1.000  O
  O31      1.0000 0.52202  0.87097  0.25397  Biso   1.000  O
  O32      1.0000 0.52573  0.87631  0.74809  Biso   1.000  O
