data_image0
_cell_length_a       10.0629
_cell_length_b       10.182
_cell_length_c       10.0628
_cell_angle_alpha    90.0021
_cell_angle_beta     90.001
_cell_angle_gamma    90.0018

_symmetry_space_group_name_H-M    "P 1"
_symmetry_int_tables_number       1

loop_
  _symmetry_equiv_pos_as_xyz
  'x, y, z'

loop_
  _atom_site_label
  _atom_site_occupancy
  _atom_site_fract_x
  _atom_site_fract_y
  _atom_site_fract_z
  _atom_site_thermal_displace_type
  _atom_site_B_iso_or_equiv
  _atom_site_type_symbol
  Li1      1.0000 0.12519  0.00007  0.12519  Biso   1.000  Li
  Zr1      1.0000 0.12520  0.00007  0.62519  Biso   1.000  Zr
  Zr2      1.0000 0.12519  0.50007  0.12519  Biso   1.000  Zr
  Zr3      1.0000 0.12520  0.50008  0.62519  Biso   1.000  Zr
  Zr4      1.0000 0.62520  0.00007  0.12519  Biso   1.000  Zr
  Zr5      1.0000 0.62519  0.00007  0.62519  Biso   1.000  Zr
  Zr6      1.0000 0.62519  0.50008  0.12519  Biso   1.000  Zr
  Zr7      1.0000 0.62519  0.50007  0.62519  Biso   1.000  Zr
  Zr8      1.0000 0.12481  0.24831  0.37240  Biso   1.000  Zr
  Zr9      1.0000 0.12556  0.24831  0.87796  Biso   1.000  Zr
  Zr10     1.0000 0.12556  0.75183  0.37240  Biso   1.000  Zr
  Zr11     1.0000 0.12481  0.75183  0.87797  Biso   1.000  Zr
  Zr12     1.0000 0.62518  0.24958  0.37548  Biso   1.000  Zr
  Zr13     1.0000 0.62520  0.24958  0.87489  Biso   1.000  Zr
  Zr14     1.0000 0.62519  0.75056  0.37548  Biso   1.000  Zr
  Zr15     1.0000 0.62518  0.75056  0.87489  Biso   1.000  Zr
  Zr16     1.0000 0.37241  0.24831  0.12480  Biso   1.000  Zr
  Zr17     1.0000 0.37548  0.24959  0.62517  Biso   1.000  Zr
  Zr18     1.0000 0.37241  0.75183  0.12556  Biso   1.000  Zr
  Zr19     1.0000 0.37548  0.75056  0.62519  Biso   1.000  Zr
  Zr20     1.0000 0.87797  0.24831  0.12556  Biso   1.000  Zr
  Zr21     1.0000 0.87489  0.24958  0.62519  Biso   1.000  Zr
  Zr22     1.0000 0.87797  0.75183  0.12481  Biso   1.000  Zr
  Zr23     1.0000 0.87489  0.75056  0.62518  Biso   1.000  Zr
  Zr24     1.0000 0.37117  0.99831  0.37116  Biso   1.000  Zr
  Zr25     1.0000 0.37118  0.00184  0.87921  Biso   1.000  Zr
  Zr26     1.0000 0.37539  0.49885  0.37539  Biso   1.000  Zr
  Zr27     1.0000 0.37540  0.50129  0.87499  Biso   1.000  Zr
  Zr28     1.0000 0.87922  0.00183  0.37117  Biso   1.000  Zr
  Zr29     1.0000 0.87922  0.99830  0.87921  Biso   1.000  Zr
  Zr30     1.0000 0.87499  0.50129  0.37539  Biso   1.000  Zr
  Zr31     1.0000 0.87499  0.49885  0.87499  Biso   1.000  Zr
  O1       1.0000 0.99361  0.14394  0.99361  Biso   1.000  O
  O2       1.0000 0.00153  0.14437  0.50091  Biso   1.000  O
  O3       1.0000 0.00085  0.63962  0.00085  Biso   1.000  O
  O4       1.0000 0.99984  0.64493  0.50029  Biso   1.000  O
  O5       1.0000 0.50092  0.14437  0.00153  Biso   1.000  O
  O6       1.0000 0.50162  0.14550  0.50162  Biso   1.000  O
  O7       1.0000 0.50029  0.64493  0.99983  Biso   1.000  O
  O8       1.0000 0.50002  0.64449  0.50002  Biso   1.000  O
  O9       1.0000 0.99808  0.11520  0.25228  Biso   1.000  O
  O10      1.0000 0.99934  0.10548  0.74864  Biso   1.000  O
  O11      1.0000 0.00021  0.60818  0.25017  Biso   1.000  O
  O12      1.0000 0.00013  0.60526  0.75056  Biso   1.000  O
  O13      1.0000 0.50173  0.10548  0.25102  Biso   1.000  O
  O14      1.0000 0.49914  0.10496  0.75123  Biso   1.000  O
  O15      1.0000 0.49982  0.60526  0.25026  Biso   1.000  O
  O16      1.0000 0.50048  0.60539  0.74990  Biso   1.000  O
  O17      1.0000 0.00085  0.36052  0.24953  Biso   1.000  O
  O18      1.0000 0.99983  0.35522  0.75009  Biso   1.000  O
  O19      1.0000 0.99361  0.85620  0.25677  Biso   1.000  O
  O20      1.0000 0.00154  0.85577  0.74946  Biso   1.000  O
  O21      1.0000 0.50028  0.35522  0.25055  Biso   1.000  O
  O22      1.0000 0.50002  0.35566  0.75036  Biso   1.000  O
  O23      1.0000 0.50092  0.85577  0.24884  Biso   1.000  O
  O24      1.0000 0.50163  0.85465  0.74875  Biso   1.000  O
  O25      1.0000 0.00021  0.39196  0.00021  Biso   1.000  O
  O26      1.0000 0.00012  0.39488  0.49982  Biso   1.000  O
  O27      1.0000 0.99809  0.88494  0.99809  Biso   1.000  O
  O28      1.0000 0.99935  0.89466  0.50174  Biso   1.000  O
  O29      1.0000 0.49982  0.39488  0.00012  Biso   1.000  O
  O30      1.0000 0.50047  0.39475  0.50048  Biso   1.000  O
  O31      1.0000 0.50174  0.89466  0.99934  Biso   1.000  O
  O32      1.0000 0.49914  0.89518  0.49913  Biso   1.000  O
  O33      1.0000 0.25677  0.14394  0.25676  Biso   1.000  O
  O34      1.0000 0.24884  0.14438  0.74946  Biso   1.000  O
  O35      1.0000 0.24953  0.63962  0.24953  Biso   1.000  O
  O36      1.0000 0.25055  0.64493  0.75009  Biso   1.000  O
  O37      1.0000 0.74946  0.14438  0.24884  Biso   1.000  O
  O38      1.0000 0.74875  0.14549  0.74875  Biso   1.000  O
  O39      1.0000 0.75010  0.64493  0.25055  Biso   1.000  O
  O40      1.0000 0.75037  0.64448  0.75037  Biso   1.000  O
  O41      1.0000 0.25228  0.11520  0.99808  Biso   1.000  O
  O42      1.0000 0.25103  0.10549  0.50173  Biso   1.000  O
  O43      1.0000 0.25017  0.60818  0.00021  Biso   1.000  O
  O44      1.0000 0.25026  0.60526  0.49982  Biso   1.000  O
  O45      1.0000 0.74864  0.10549  0.99934  Biso   1.000  O
  O46      1.0000 0.75124  0.10496  0.49914  Biso   1.000  O
  O47      1.0000 0.75056  0.60526  0.00013  Biso   1.000  O
  O48      1.0000 0.74990  0.60540  0.50048  Biso   1.000  O
  O49      1.0000 0.24953  0.36052  0.00084  Biso   1.000  O
  O50      1.0000 0.25055  0.35522  0.50028  Biso   1.000  O
  O51      1.0000 0.25677  0.85620  0.99361  Biso   1.000  O
  O52      1.0000 0.24885  0.85577  0.50091  Biso   1.000  O
  O53      1.0000 0.75009  0.35521  0.99983  Biso   1.000  O
  O54      1.0000 0.75036  0.35567  0.50001  Biso   1.000  O
  O55      1.0000 0.74947  0.85577  0.00153  Biso   1.000  O
  O56      1.0000 0.74876  0.85465  0.50162  Biso   1.000  O
  O57      1.0000 0.25017  0.39196  0.25016  Biso   1.000  O
  O58      1.0000 0.25026  0.39489  0.75055  Biso   1.000  O
  O59      1.0000 0.25229  0.88494  0.25228  Biso   1.000  O
  O60      1.0000 0.25104  0.89466  0.74864  Biso   1.000  O
  O61      1.0000 0.75056  0.39489  0.25025  Biso   1.000  O
  O62      1.0000 0.74990  0.39475  0.74990  Biso   1.000  O
  O63      1.0000 0.74864  0.89466  0.25103  Biso   1.000  O
  O64      1.0000 0.75124  0.89518  0.75123  Biso   1.000  O
