data_image0
_cell_length_a       10.2008
_cell_length_b       10.3545
_cell_length_c       10.5294
_cell_angle_alpha    90.0978
_cell_angle_beta     79.8178
_cell_angle_gamma    90.1686

_symmetry_space_group_name_H-M    "P 1"
_symmetry_int_tables_number       1

loop_
  _symmetry_equiv_pos_as_xyz
  'x, y, z'

loop_
  _atom_site_label
  _atom_site_occupancy
  _atom_site_fract_x
  _atom_site_fract_y
  _atom_site_fract_z
  _atom_site_thermal_displace_type
  _atom_site_B_iso_or_equiv
  _atom_site_type_symbol
  Zr1      1.0000 0.13863  0.02309  0.14680  Biso   1.000  Zr
  Zr2      1.0000 0.13823  0.22984  0.39601  Biso   1.000  Zr
  Zr3      1.0000 0.34960  0.27660  0.09213  Biso   1.000  Zr
  Zr4      1.0000 0.35823  0.47993  0.35465  Biso   1.000  Zr
  O1       1.0000 0.03508  0.17106  0.08110  Biso   1.000  O
  O2       1.0000 0.03822  0.08020  0.33087  Biso   1.000  O
  O3       1.0000 0.46369  0.40977  0.17485  Biso   1.000  O
  O4       1.0000 0.46512  0.32459  0.41505  Biso   1.000  O
  O5       1.0000 0.28444  0.13522  0.24132  Biso   1.000  O
  O6       1.0000 0.27684  0.12046  0.49003  Biso   1.000  O
  O7       1.0000 0.21691  0.38340  0.00385  Biso   1.000  O
  O8       1.0000 0.22007  0.37312  0.25663  Biso   1.000  O
  Zr5      1.0000 0.13816  0.02131  0.64558  Biso   1.000  Zr
  Zr6      1.0000 0.13464  0.22846  0.89283  Biso   1.000  Zr
  Zr7      1.0000 0.36107  0.27005  0.60391  Biso   1.000  Zr
  Zr8      1.0000 0.35791  0.48145  0.85078  Biso   1.000  Zr
  O9       1.0000 0.03696  0.17143  0.58209  Biso   1.000  O
  O10      1.0000 0.03332  0.07988  0.83061  Biso   1.000  O
  O11      1.0000 0.46360  0.42019  0.66695  Biso   1.000  O
  O12      1.0000 0.46240  0.33377  0.91764  Biso   1.000  O
  O13      1.0000 0.27528  0.12852  0.73992  Biso   1.000  O
  O14      1.0000 0.27313  0.12281  0.98867  Biso   1.000  O
  O15      1.0000 0.22520  0.37957  0.50775  Biso   1.000  O
  O16      1.0000 0.22240  0.37050  0.75657  Biso   1.000  O
  Zr9      1.0000 0.13632  0.52435  0.14568  Biso   1.000  Zr
  Zr10     1.0000 0.13807  0.72848  0.39698  Biso   1.000  Zr
  Zr11     1.0000 0.36004  0.77209  0.10460  Biso   1.000  Zr
  Zr12     1.0000 0.35915  0.97431  0.35636  Biso   1.000  Zr
  O17      1.0000 0.03385  0.67182  0.08190  Biso   1.000  O
  O18      1.0000 0.03424  0.58157  0.33104  Biso   1.000  O
  O19      1.0000 0.46488  0.91805  0.17204  Biso   1.000  O
  O20      1.0000 0.46516  0.83136  0.42163  Biso   1.000  O
  O21      1.0000 0.27562  0.62893  0.24131  Biso   1.000  O
  O22      1.0000 0.27520  0.62195  0.49130  Biso   1.000  O
  O23      1.0000 0.22309  0.88050  0.01057  Biso   1.000  O
  O24      1.0000 0.22257  0.87180  0.26020  Biso   1.000  O
  Zr13     1.0000 0.13805  0.52204  0.64578  Biso   1.000  Zr
  Zr14     1.0000 0.13704  0.72980  0.89661  Biso   1.000  Zr
  Zr15     1.0000 0.36086  0.77190  0.60573  Biso   1.000  Zr
  Zr16     1.0000 0.35996  0.97820  0.85514  Biso   1.000  Zr
  O25      1.0000 0.03410  0.66929  0.58128  Biso   1.000  O
  O26      1.0000 0.03486  0.58061  0.83171  Biso   1.000  O
  O27      1.0000 0.46443  0.91941  0.67168  Biso   1.000  O
  O28      1.0000 0.46420  0.83143  0.92146  Biso   1.000  O
  O29      1.0000 0.27484  0.62959  0.74062  Biso   1.000  O
  O30      1.0000 0.27466  0.62274  0.99058  Biso   1.000  O
  O31      1.0000 0.22317  0.87790  0.51074  Biso   1.000  O
  O32      1.0000 0.22254  0.87146  0.76017  Biso   1.000  O
  Zr17     1.0000 0.63911  0.02164  0.14714  Biso   1.000  Zr
  Zr18     1.0000 0.64941  0.22816  0.40351  Biso   1.000  Zr
  Zr19     1.0000 0.85992  0.27189  0.10647  Biso   1.000  Zr
  Zr20     1.0000 0.86094  0.47907  0.35572  Biso   1.000  Zr
  O33      1.0000 0.52947  0.17234  0.08719  Biso   1.000  O
  O34      1.0000 0.53511  0.08367  0.33189  Biso   1.000  O
  O35      1.0000 0.96279  0.42110  0.16992  Biso   1.000  O
  O36      1.0000 0.96300  0.32998  0.42052  Biso   1.000  O
  O37      1.0000 0.77778  0.12872  0.24439  Biso   1.000  O
  O38      1.0000 0.78085  0.11901  0.49532  Biso   1.000  O
  O39      1.0000 0.72136  0.37882  0.01240  Biso   1.000  O
  O40      1.0000 0.72314  0.37026  0.26294  Biso   1.000  O
  Zr21     1.0000 0.63930  0.02090  0.64898  Biso   1.000  Zr
  Zr22     1.0000 0.63720  0.22949  0.89913  Biso   1.000  Zr
  Zr23     1.0000 0.86197  0.27177  0.60855  Biso   1.000  Zr
  Zr24     1.0000 0.85926  0.47933  0.85661  Biso   1.000  Zr
  O41      1.0000 0.53730  0.16951  0.58286  Biso   1.000  O
  O42      1.0000 0.53382  0.08159  0.83368  Biso   1.000  O
  O43      1.0000 0.96368  0.42061  0.67102  Biso   1.000  O
  O44      1.0000 0.96062  0.32943  0.91960  Biso   1.000  O
  O45      1.0000 0.77506  0.12969  0.74447  Biso   1.000  O
  O46      1.0000 0.77262  0.12104  0.99367  Biso   1.000  O
  O47      1.0000 0.72464  0.37865  0.51284  Biso   1.000  O
  O48      1.0000 0.72214  0.37147  0.76237  Biso   1.000  O
  Zr25     1.0000 0.63674  0.52042  0.14801  Biso   1.000  Zr
  Zr26     1.0000 0.63874  0.72803  0.39726  Biso   1.000  Zr
  Zr27     1.0000 0.85899  0.77224  0.10577  Biso   1.000  Zr
  Zr28     1.0000 0.86187  0.97715  0.35551  Biso   1.000  Zr
  O49      1.0000 0.53212  0.66542  0.08107  Biso   1.000  O
  O50      1.0000 0.53293  0.58001  0.33210  Biso   1.000  O
  O51      1.0000 0.96452  0.92076  0.16975  Biso   1.000  O
  O52      1.0000 0.96455  0.83059  0.42084  Biso   1.000  O
  O53      1.0000 0.77399  0.62854  0.24196  Biso   1.000  O
  O54      1.0000 0.77537  0.62086  0.49184  Biso   1.000  O
  O55      1.0000 0.72160  0.87860  0.01134  Biso   1.000  O
  O56      1.0000 0.72293  0.87171  0.26096  Biso   1.000  O
  Zr29     1.0000 0.63836  0.52226  0.64727  Biso   1.000  Zr
  Zr30     1.0000 0.63762  0.72776  0.89755  Biso   1.000  Zr
  Zr31     1.0000 0.86000  0.77171  0.60599  Biso   1.000  Zr
  Zr32     1.0000 0.85873  0.97816  0.85626  Biso   1.000  Zr
  O57      1.0000 0.53473  0.66943  0.58130  Biso   1.000  O
  O58      1.0000 0.53299  0.58205  0.82970  Biso   1.000  O
  O59      1.0000 0.96288  0.91992  0.67059  Biso   1.000  O
  O60      1.0000 0.96257  0.83085  0.92071  Biso   1.000  O
  O61      1.0000 0.77527  0.62931  0.74255  Biso   1.000  O
  O62      1.0000 0.77441  0.62116  0.99279  Biso   1.000  O
  O63      1.0000 0.72344  0.87852  0.51107  Biso   1.000  O
  O64      1.0000 0.72217  0.87115  0.76147  Biso   1.000  O
  Li1      1.0000 0.45674  0.22097  0.27306  Biso   1.000  Li
