data_image0
_cell_length_a       10.2991
_cell_length_b       10.3527
_cell_length_c       5.31665
_cell_angle_alpha    90.5028
_cell_angle_beta     78.4449
_cell_angle_gamma    91.1013

_symmetry_space_group_name_H-M    "P 1"
_symmetry_int_tables_number       1

loop_
  _symmetry_equiv_pos_as_xyz
  'x, y, z'

loop_
  _atom_site_label
  _atom_site_occupancy
  _atom_site_fract_x
  _atom_site_fract_y
  _atom_site_fract_z
  _atom_site_thermal_displace_type
  _atom_site_B_iso_or_equiv
  _atom_site_type_symbol
  Zr1      1.0000 0.13970  0.02669  0.29444  Biso   1.000  Zr
  Zr2      1.0000 0.13824  0.23335  0.77742  Biso   1.000  Zr
  Zr3      1.0000 0.33970  0.27840  0.17610  Biso   1.000  Zr
  Zr4      1.0000 0.34692  0.48016  0.69059  Biso   1.000  Zr
  O1       1.0000 0.03449  0.16775  0.15110  Biso   1.000  O
  O2       1.0000 0.03582  0.08386  0.65208  Biso   1.000  O
  O3       1.0000 0.46385  0.40711  0.34895  Biso   1.000  O
  O4       1.0000 0.47217  0.33221  0.84364  Biso   1.000  O
  O5       1.0000 0.28982  0.12633  0.47386  Biso   1.000  O
  O6       1.0000 0.27565  0.12359  0.96669  Biso   1.000  O
  O7       1.0000 0.21245  0.38629  0.00215  Biso   1.000  O
  O8       1.0000 0.20236  0.37706  0.48676  Biso   1.000  O
  Zr5      1.0000 0.13551  0.52934  0.28998  Biso   1.000  Zr
  Zr6      1.0000 0.13497  0.73003  0.79724  Biso   1.000  Zr
  Zr7      1.0000 0.35982  0.77200  0.21048  Biso   1.000  Zr
  Zr8      1.0000 0.35767  0.96906  0.71496  Biso   1.000  Zr
  O9       1.0000 0.02574  0.66722  0.15428  Biso   1.000  O
  O10      1.0000 0.02981  0.58835  0.65671  Biso   1.000  O
  O11      1.0000 0.47019  0.91123  0.35839  Biso   1.000  O
  O12      1.0000 0.46807  0.83611  0.85467  Biso   1.000  O
  O13      1.0000 0.27428  0.63166  0.48562  Biso   1.000  O
  O14      1.0000 0.27045  0.62636  0.98024  Biso   1.000  O
  O15      1.0000 0.22353  0.87892  0.02515  Biso   1.000  O
  O16      1.0000 0.22258  0.87241  0.52201  Biso   1.000  O
  Zr9      1.0000 0.64426  0.01614  0.30662  Biso   1.000  Zr
  Zr10     1.0000 0.65243  0.22886  0.83145  Biso   1.000  Zr
  Zr11     1.0000 0.86622  0.27198  0.22220  Biso   1.000  Zr
  Zr12     1.0000 0.85955  0.47869  0.71665  Biso   1.000  Zr
  O17      1.0000 0.53422  0.16893  0.18697  Biso   1.000  O
  O18      1.0000 0.53411  0.08658  0.67244  Biso   1.000  O
  O19      1.0000 0.95917  0.42281  0.34873  Biso   1.000  O
  O20      1.0000 0.96314  0.33579  0.84804  Biso   1.000  O
  O21      1.0000 0.77803  0.12738  0.50218  Biso   1.000  O
  O22      1.0000 0.77860  0.11708  0.00135  Biso   1.000  O
  O23      1.0000 0.72644  0.37657  0.04127  Biso   1.000  O
  O24      1.0000 0.71893  0.36779  0.53880  Biso   1.000  O
  Zr13     1.0000 0.63581  0.52180  0.30363  Biso   1.000  Zr
  Zr14     1.0000 0.63459  0.72303  0.80031  Biso   1.000  Zr
  Zr15     1.0000 0.85849  0.77204  0.21349  Biso   1.000  Zr
  Zr16     1.0000 0.86262  0.97556  0.71322  Biso   1.000  Zr
  O25      1.0000 0.52650  0.65913  0.15762  Biso   1.000  O
  O26      1.0000 0.52635  0.58327  0.65685  Biso   1.000  O
  O27      1.0000 0.96598  0.91605  0.34919  Biso   1.000  O
  O28      1.0000 0.96560  0.83692  0.85132  Biso   1.000  O
  O29      1.0000 0.77176  0.62840  0.48935  Biso   1.000  O
  O30      1.0000 0.77011  0.62102  0.98809  Biso   1.000  O
  O31      1.0000 0.72278  0.87610  0.02778  Biso   1.000  O
  O32      1.0000 0.72277  0.87143  0.52891  Biso   1.000  O
  Mg1      1.0000 0.45908  0.23127  0.54002  Biso   1.000  Mg
