data_image0
_cell_length_a       10.1426
_cell_length_b       10.3307
_cell_length_c       5.30914
_cell_angle_alpha    89.6519
_cell_angle_beta     91.9552
_cell_angle_gamma    90.7004

_symmetry_space_group_name_H-M    "P 1"
_symmetry_int_tables_number       1

loop_
  _symmetry_equiv_pos_as_xyz
  'x, y, z'

loop_
  _atom_site_label
  _atom_site_occupancy
  _atom_site_fract_x
  _atom_site_fract_y
  _atom_site_fract_z
  _atom_site_thermal_displace_type
  _atom_site_B_iso_or_equiv
  _atom_site_type_symbol
  Zr1      1.0000 0.14021  0.02153  0.35054  Biso   1.000  Zr
  Zr2      1.0000 0.13484  0.22680  0.86140  Biso   1.000  Zr
  Zr3      1.0000 0.35019  0.27162  0.39109  Biso   1.000  Zr
  Zr4      1.0000 0.35678  0.48545  0.86194  Biso   1.000  Zr
  Zr5      1.0000 0.65122  0.02090  0.13739  Biso   1.000  Zr
  Zr6      1.0000 0.65790  0.22061  0.62903  Biso   1.000  Zr
  Zr7      1.0000 0.85471  0.26727  0.14348  Biso   1.000  Zr
  Zr8      1.0000 0.86322  0.47735  0.65401  Biso   1.000  Zr
  O1       1.0000 0.03223  0.16129  0.16733  Biso   1.000  O
  O2       1.0000 0.03746  0.08413  0.66503  Biso   1.000  O
  O3       1.0000 0.46997  0.41362  0.18257  Biso   1.000  O
  O4       1.0000 0.46941  0.33060  0.70295  Biso   1.000  O
  O5       1.0000 0.27403  0.12587  0.61193  Biso   1.000  O
  O6       1.0000 0.27884  0.12860  0.10785  Biso   1.000  O
  O7       1.0000 0.22237  0.37697  0.61869  Biso   1.000  O
  O8       1.0000 0.22502  0.37704  0.11783  Biso   1.000  O
  O9       1.0000 0.52320  0.16487  0.34149  Biso   1.000  O
  O10      1.0000 0.53189  0.08778  0.83496  Biso   1.000  O
  O11      1.0000 0.96493  0.41156  0.34089  Biso   1.000  O
  O12      1.0000 0.96909  0.33829  0.84159  Biso   1.000  O
  O13      1.0000 0.79663  0.11594  0.88024  Biso   1.000  O
  O14      1.0000 0.78754  0.11987  0.39701  Biso   1.000  O
  O15      1.0000 0.72096  0.38045  0.89406  Biso   1.000  O
  O16      1.0000 0.72094  0.37538  0.39503  Biso   1.000  O
  Zr9      1.0000 0.13507  0.52074  0.34951  Biso   1.000  Zr
  Zr10     1.0000 0.14055  0.72950  0.84690  Biso   1.000  Zr
  Zr11     1.0000 0.36428  0.77510  0.35281  Biso   1.000  Zr
  Zr12     1.0000 0.36337  0.97767  0.85782  Biso   1.000  Zr
  Zr13     1.0000 0.64362  0.53115  0.15708  Biso   1.000  Zr
  Zr14     1.0000 0.64097  0.73005  0.65515  Biso   1.000  Zr
  Zr15     1.0000 0.86630  0.77031  0.15791  Biso   1.000  Zr
  Zr16     1.0000 0.86603  0.97264  0.65272  Biso   1.000  Zr
  O17      1.0000 0.03441  0.66143  0.16426  Biso   1.000  O
  O18      1.0000 0.03279  0.58695  0.66584  Biso   1.000  O
  O19      1.0000 0.47359  0.91389  0.16770  Biso   1.000  O
  O20      1.0000 0.47385  0.83947  0.66695  Biso   1.000  O
  O21      1.0000 0.27573  0.62548  0.59680  Biso   1.000  O
  O22      1.0000 0.27584  0.62592  0.09770  Biso   1.000  O
  O23      1.0000 0.22894  0.87436  0.60050  Biso   1.000  O
  O24      1.0000 0.22643  0.87603  0.10154  Biso   1.000  O
  O25      1.0000 0.53169  0.66239  0.34191  Biso   1.000  O
  O26      1.0000 0.52912  0.59025  0.84524  Biso   1.000  O
  O27      1.0000 0.97450  0.90953  0.33825  Biso   1.000  O
  O28      1.0000 0.97269  0.83428  0.84195  Biso   1.000  O
  O29      1.0000 0.77747  0.62506  0.90746  Biso   1.000  O
  O30      1.0000 0.77856  0.62677  0.40894  Biso   1.000  O
  O31      1.0000 0.72924  0.87177  0.90956  Biso   1.000  O
  O32      1.0000 0.73004  0.87125  0.40451  Biso   1.000  O
  Mg1      1.0000 0.54006  0.26443  0.03320  Biso   1.000  Mg
