data_image0
_cell_length_a       10.2901
_cell_length_b       5.17669
_cell_length_c       10.6218
_cell_angle_alpha    90.2403
_cell_angle_beta     78.5534
_cell_angle_gamma    90.9665

_symmetry_space_group_name_H-M    "P 1"
_symmetry_int_tables_number       1

loop_
  _symmetry_equiv_pos_as_xyz
  'x, y, z'

loop_
  _atom_site_label
  _atom_site_occupancy
  _atom_site_fract_x
  _atom_site_fract_y
  _atom_site_fract_z
  _atom_site_thermal_displace_type
  _atom_site_B_iso_or_equiv
  _atom_site_type_symbol
  Zr1      1.0000 0.13711  0.06037  0.14888  Biso   1.000  Zr
  Zr2      1.0000 0.14036  0.46647  0.39678  Biso   1.000  Zr
  Zr3      1.0000 0.33845  0.55836  0.08766  Biso   1.000  Zr
  Zr4      1.0000 0.34835  0.94539  0.35290  Biso   1.000  Zr
  O1       1.0000 0.02869  0.34062  0.07610  Biso   1.000  O
  O2       1.0000 0.03718  0.16994  0.32964  Biso   1.000  O
  O3       1.0000 0.46367  0.80875  0.17918  Biso   1.000  O
  O4       1.0000 0.47159  0.65135  0.42097  Biso   1.000  O
  O5       1.0000 0.28980  0.26786  0.24153  Biso   1.000  O
  O6       1.0000 0.27666  0.24809  0.48908  Biso   1.000  O
  O7       1.0000 0.21336  0.77383  0.00140  Biso   1.000  O
  O8       1.0000 0.20507  0.75005  0.24912  Biso   1.000  O
  Zr5      1.0000 0.13811  0.04715  0.64401  Biso   1.000  Zr
  Zr6      1.0000 0.13012  0.46013  0.89220  Biso   1.000  Zr
  Zr7      1.0000 0.36238  0.54035  0.60443  Biso   1.000  Zr
  Zr8      1.0000 0.35588  0.96263  0.84954  Biso   1.000  Zr
  O9       1.0000 0.03412  0.33757  0.58132  Biso   1.000  O
  O10      1.0000 0.03083  0.16505  0.82828  Biso   1.000  O
  O11      1.0000 0.46667  0.83313  0.67220  Biso   1.000  O
  O12      1.0000 0.46250  0.67641  0.92188  Biso   1.000  O
  O13      1.0000 0.27455  0.25585  0.73914  Biso   1.000  O
  O14      1.0000 0.27038  0.25318  0.98578  Biso   1.000  O
  O15      1.0000 0.22348  0.75837  0.51181  Biso   1.000  O
  O16      1.0000 0.22248  0.74220  0.75568  Biso   1.000  O
  Zr9      1.0000 0.64097  0.03276  0.15148  Biso   1.000  Zr
  Zr10     1.0000 0.65387  0.45126  0.41172  Biso   1.000  Zr
  Zr11     1.0000 0.85937  0.54412  0.10793  Biso   1.000  Zr
  Zr12     1.0000 0.86420  0.95277  0.35627  Biso   1.000  Zr
  O17      1.0000 0.52603  0.33504  0.08915  Biso   1.000  O
  O18      1.0000 0.53436  0.16008  0.33400  Biso   1.000  O
  O19      1.0000 0.96099  0.84475  0.17171  Biso   1.000  O
  O20      1.0000 0.96666  0.67204  0.42634  Biso   1.000  O
  O21      1.0000 0.77673  0.25398  0.24755  Biso   1.000  O
  O22      1.0000 0.78206  0.23502  0.49900  Biso   1.000  O
  O23      1.0000 0.72028  0.75222  0.01588  Biso   1.000  O
  O24      1.0000 0.72027  0.73770  0.26569  Biso   1.000  O
  Zr13     1.0000 0.64037  0.04141  0.65326  Biso   1.000  Zr
  Zr14     1.0000 0.63382  0.45677  0.90366  Biso   1.000  Zr
  Zr15     1.0000 0.86417  0.54412  0.61092  Biso   1.000  Zr
  Zr16     1.0000 0.85668  0.95798  0.85879  Biso   1.000  Zr
  O25      1.0000 0.53627  0.33027  0.58488  Biso   1.000  O
  O26      1.0000 0.52964  0.17073  0.83256  Biso   1.000  O
  O27      1.0000 0.96344  0.83871  0.67513  Biso   1.000  O
  O28      1.0000 0.95933  0.66487  0.92119  Biso   1.000  O
  O29      1.0000 0.77362  0.25970  0.74866  Biso   1.000  O
  O30      1.0000 0.76841  0.24044  0.99687  Biso   1.000  O
  O31      1.0000 0.72697  0.75241  0.51734  Biso   1.000  O
  O32      1.0000 0.72066  0.74361  0.76668  Biso   1.000  O
  Mg1      1.0000 0.46037  0.45431  0.26878  Biso   1.000  Mg
