data_image0
_cell_length_a       10.0728
_cell_length_b       5.16824
_cell_length_c       10.1116
_cell_angle_alpha    90.1242
_cell_angle_beta     89.8296
_cell_angle_gamma    90.1432

_symmetry_space_group_name_H-M    "P 1"
_symmetry_int_tables_number       1

loop_
  _symmetry_equiv_pos_as_xyz
  'x, y, z'

loop_
  _atom_site_label
  _atom_site_occupancy
  _atom_site_fract_x
  _atom_site_fract_y
  _atom_site_fract_z
  _atom_site_thermal_displace_type
  _atom_site_B_iso_or_equiv
  _atom_site_type_symbol
  Mg1      1.0000 0.13318  0.03319  0.11761  Biso   1.000  Mg
  Zr1      1.0000 0.13482  0.03425  0.62743  Biso   1.000  Zr
  Zr2      1.0000 0.63379  0.03012  0.12326  Biso   1.000  Zr
  Zr3      1.0000 0.63283  0.02957  0.62221  Biso   1.000  Zr
  Zr4      1.0000 0.13629  0.46582  0.37242  Biso   1.000  Zr
  Zr5      1.0000 0.13714  0.46804  0.87986  Biso   1.000  Zr
  Zr6      1.0000 0.63404  0.47062  0.37359  Biso   1.000  Zr
  Zr7      1.0000 0.63339  0.47017  0.87335  Biso   1.000  Zr
  Zr8      1.0000 0.35921  0.52627  0.12647  Biso   1.000  Zr
  Zr9      1.0000 0.36531  0.53452  0.62619  Biso   1.000  Zr
  Zr10     1.0000 0.86762  0.53165  0.12396  Biso   1.000  Zr
  Zr11     1.0000 0.86659  0.53067  0.62255  Biso   1.000  Zr
  Zr12     1.0000 0.36032  0.97063  0.37193  Biso   1.000  Zr
  Zr13     1.0000 0.36111  0.96674  0.88048  Biso   1.000  Zr
  Zr14     1.0000 0.87052  0.97041  0.37069  Biso   1.000  Zr
  Zr15     1.0000 0.86522  0.97189  0.87285  Biso   1.000  Zr
  O1       1.0000 0.02687  0.35885  0.20242  Biso   1.000  O
  O2       1.0000 0.03497  0.37156  0.69565  Biso   1.000  O
  O3       1.0000 0.53278  0.36426  0.19594  Biso   1.000  O
  O4       1.0000 0.53432  0.36654  0.69409  Biso   1.000  O
  O5       1.0000 0.03273  0.13503  0.45173  Biso   1.000  O
  O6       1.0000 0.03120  0.13907  0.93979  Biso   1.000  O
  O7       1.0000 0.53220  0.13613  0.44479  Biso   1.000  O
  O8       1.0000 0.53386  0.13496  0.94508  Biso   1.000  O
  O9       1.0000 0.46897  0.86139  0.19721  Biso   1.000  O
  O10      1.0000 0.46562  0.86720  0.69800  Biso   1.000  O
  O11      1.0000 0.97316  0.85686  0.19832  Biso   1.000  O
  O12      1.0000 0.96496  0.86757  0.69417  Biso   1.000  O
  O13      1.0000 0.46825  0.63820  0.44932  Biso   1.000  O
  O14      1.0000 0.46652  0.63532  0.94630  Biso   1.000  O
  O15      1.0000 0.96694  0.63484  0.44568  Biso   1.000  O
  O16      1.0000 0.96512  0.63595  0.94399  Biso   1.000  O
  O17      1.0000 0.27004  0.23267  0.24919  Biso   1.000  O
  O18      1.0000 0.27038  0.23668  0.74949  Biso   1.000  O
  O19      1.0000 0.76739  0.23032  0.24591  Biso   1.000  O
  O20      1.0000 0.76833  0.23275  0.74528  Biso   1.000  O
  O21      1.0000 0.26915  0.26757  0.49954  Biso   1.000  O
  O22      1.0000 0.27129  0.26289  0.99754  Biso   1.000  O
  O23      1.0000 0.76792  0.27026  0.49551  Biso   1.000  O
  O24      1.0000 0.76851  0.26904  0.99582  Biso   1.000  O
  O25      1.0000 0.23057  0.76797  0.50107  Biso   1.000  O
  O26      1.0000 0.22934  0.76004  0.00159  Biso   1.000  O
  O27      1.0000 0.73284  0.77086  0.49481  Biso   1.000  O
  O28      1.0000 0.73033  0.76831  0.99578  Biso   1.000  O
  O29      1.0000 0.23696  0.72257  0.25416  Biso   1.000  O
  O30      1.0000 0.22997  0.73668  0.75034  Biso   1.000  O
  O31      1.0000 0.73203  0.73134  0.24551  Biso   1.000  O
  O32      1.0000 0.73006  0.73238  0.74498  Biso   1.000  O
