data_image0
_cell_length_a       10.2263
_cell_length_b       10.3169
_cell_length_c       10.4983
_cell_angle_alpha    89.9966
_cell_angle_beta     80.1884
_cell_angle_gamma    89.9764

_symmetry_space_group_name_H-M    "P 1"
_symmetry_int_tables_number       1

loop_
  _symmetry_equiv_pos_as_xyz
  'x, y, z'

loop_
  _atom_site_label
  _atom_site_occupancy
  _atom_site_fract_x
  _atom_site_fract_y
  _atom_site_fract_z
  _atom_site_thermal_displace_type
  _atom_site_B_iso_or_equiv
  _atom_site_type_symbol
  Mg1      1.0000 0.13413  0.01447  0.15151  Biso   1.000  Mg
  Zr1      1.0000 0.13917  0.02133  0.64462  Biso   1.000  Zr
  Zr2      1.0000 0.14028  0.52115  0.14495  Biso   1.000  Zr
  Zr3      1.0000 0.13991  0.52152  0.64617  Biso   1.000  Zr
  Zr4      1.0000 0.63935  0.02108  0.14586  Biso   1.000  Zr
  Zr5      1.0000 0.63914  0.02122  0.64549  Biso   1.000  Zr
  Zr6      1.0000 0.63842  0.51991  0.14504  Biso   1.000  Zr
  Zr7      1.0000 0.63892  0.52135  0.64565  Biso   1.000  Zr
  Zr8      1.0000 0.13918  0.22626  0.39203  Biso   1.000  Zr
  Zr9      1.0000 0.14026  0.22528  0.89887  Biso   1.000  Zr
  Zr10     1.0000 0.14093  0.72929  0.39390  Biso   1.000  Zr
  Zr11     1.0000 0.14133  0.73259  0.89672  Biso   1.000  Zr
  Zr12     1.0000 0.63891  0.22840  0.39520  Biso   1.000  Zr
  Zr13     1.0000 0.63943  0.22964  0.89622  Biso   1.000  Zr
  Zr14     1.0000 0.63820  0.72991  0.39509  Biso   1.000  Zr
  Zr15     1.0000 0.63887  0.72875  0.89655  Biso   1.000  Zr
  Zr16     1.0000 0.35669  0.26571  0.10533  Biso   1.000  Zr
  Zr17     1.0000 0.35937  0.27107  0.60465  Biso   1.000  Zr
  Zr18     1.0000 0.35747  0.77452  0.10415  Biso   1.000  Zr
  Zr19     1.0000 0.36083  0.77254  0.60406  Biso   1.000  Zr
  Zr20     1.0000 0.86545  0.26793  0.10408  Biso   1.000  Zr
  Zr21     1.0000 0.86059  0.27145  0.60398  Biso   1.000  Zr
  Zr22     1.0000 0.86115  0.77301  0.10581  Biso   1.000  Zr
  Zr23     1.0000 0.86053  0.77074  0.60434  Biso   1.000  Zr
  Zr24     1.0000 0.36022  0.47810  0.35379  Biso   1.000  Zr
  Zr25     1.0000 0.36028  0.47831  0.85518  Biso   1.000  Zr
  Zr26     1.0000 0.35694  0.98031  0.35120  Biso   1.000  Zr
  Zr27     1.0000 0.35914  0.98049  0.85712  Biso   1.000  Zr
  Zr28     1.0000 0.86003  0.47930  0.35422  Biso   1.000  Zr
  Zr29     1.0000 0.86165  0.47891  0.85546  Biso   1.000  Zr
  Zr30     1.0000 0.86353  0.97929  0.35231  Biso   1.000  Zr
  Zr31     1.0000 0.86025  0.97884  0.85452  Biso   1.000  Zr
  O1       1.0000 0.03616  0.16626  0.07931  Biso   1.000  O
  O2       1.0000 0.03416  0.16859  0.57986  Biso   1.000  O
  O3       1.0000 0.03450  0.66758  0.07978  Biso   1.000  O
  O4       1.0000 0.03453  0.66755  0.58017  Biso   1.000  O
  O5       1.0000 0.53506  0.16745  0.07946  Biso   1.000  O
  O6       1.0000 0.53326  0.16705  0.57948  Biso   1.000  O
  O7       1.0000 0.53274  0.66595  0.07893  Biso   1.000  O
  O8       1.0000 0.53386  0.66743  0.57931  Biso   1.000  O
  O9       1.0000 0.03194  0.08312  0.33444  Biso   1.000  O
  O10      1.0000 0.03341  0.08235  0.82849  Biso   1.000  O
  O11      1.0000 0.03393  0.58313  0.32907  Biso   1.000  O
  O12      1.0000 0.03503  0.58292  0.83065  Biso   1.000  O
  O13      1.0000 0.53325  0.08335  0.32904  Biso   1.000  O
  O14      1.0000 0.53601  0.08289  0.82938  Biso   1.000  O
  O15      1.0000 0.53366  0.58255  0.32920  Biso   1.000  O
  O16      1.0000 0.53352  0.58375  0.82869  Biso   1.000  O
  O17      1.0000 0.46571  0.41469  0.17128  Biso   1.000  O
  O18      1.0000 0.46582  0.41693  0.67094  Biso   1.000  O
  O19      1.0000 0.46745  0.91635  0.17046  Biso   1.000  O
  O20      1.0000 0.46612  0.91718  0.67130  Biso   1.000  O
  O21      1.0000 0.96601  0.41813  0.17010  Biso   1.000  O
  O22      1.0000 0.96602  0.41797  0.67040  Biso   1.000  O
  O23      1.0000 0.96272  0.91561  0.17144  Biso   1.000  O
  O24      1.0000 0.96513  0.91782  0.66945  Biso   1.000  O
  O25      1.0000 0.46591  0.33332  0.42147  Biso   1.000  O
  O26      1.0000 0.46756  0.33494  0.92126  Biso   1.000  O
  O27      1.0000 0.46513  0.83362  0.42071  Biso   1.000  O
  O28      1.0000 0.46828  0.83518  0.92143  Biso   1.000  O
  O29      1.0000 0.96522  0.33365  0.42009  Biso   1.000  O
  O30      1.0000 0.96682  0.33256  0.92024  Biso   1.000  O
  O31      1.0000 0.96587  0.83121  0.42029  Biso   1.000  O
  O32      1.0000 0.96509  0.83200  0.91950  Biso   1.000  O
  O33      1.0000 0.27790  0.12860  0.24238  Biso   1.000  O
  O34      1.0000 0.27465  0.12771  0.73925  Biso   1.000  O
  O35      1.0000 0.27586  0.62684  0.23990  Biso   1.000  O
  O36      1.0000 0.27584  0.62974  0.74094  Biso   1.000  O
  O37      1.0000 0.77474  0.12815  0.24098  Biso   1.000  O
  O38      1.0000 0.77618  0.12898  0.74038  Biso   1.000  O
  O39      1.0000 0.77473  0.62855  0.24065  Biso   1.000  O
  O40      1.0000 0.77540  0.62843  0.74060  Biso   1.000  O
  O41      1.0000 0.27472  0.12174  0.49102  Biso   1.000  O
  O42      1.0000 0.28448  0.12761  0.98368  Biso   1.000  O
  O43      1.0000 0.27581  0.62175  0.49048  Biso   1.000  O
  O44      1.0000 0.27592  0.62146  0.99057  Biso   1.000  O
  O45      1.0000 0.77443  0.12235  0.49104  Biso   1.000  O
  O46      1.0000 0.77594  0.12102  0.99046  Biso   1.000  O
  O47      1.0000 0.77501  0.62170  0.49071  Biso   1.000  O
  O48      1.0000 0.77467  0.62056  0.99046  Biso   1.000  O
  O49      1.0000 0.22431  0.37930  0.00951  Biso   1.000  O
  O50      1.0000 0.22445  0.37911  0.50930  Biso   1.000  O
  O51      1.0000 0.22659  0.87865  0.00673  Biso   1.000  O
  O52      1.0000 0.22368  0.87889  0.50900  Biso   1.000  O
  O53      1.0000 0.72586  0.37786  0.00946  Biso   1.000  O
  O54      1.0000 0.72390  0.37914  0.50960  Biso   1.000  O
  O55      1.0000 0.72455  0.87856  0.00920  Biso   1.000  O
  O56      1.0000 0.72495  0.87856  0.50926  Biso   1.000  O
  O57      1.0000 0.22311  0.37159  0.25890  Biso   1.000  O
  O58      1.0000 0.22492  0.37117  0.75986  Biso   1.000  O
  O59      1.0000 0.22637  0.86803  0.26005  Biso   1.000  O
  O60      1.0000 0.22418  0.87261  0.75784  Biso   1.000  O
  O61      1.0000 0.72520  0.37103  0.25982  Biso   1.000  O
  O62      1.0000 0.72503  0.37197  0.75926  Biso   1.000  O
  O63      1.0000 0.72135  0.87133  0.25979  Biso   1.000  O
  O64      1.0000 0.72484  0.87127  0.75924  Biso   1.000  O
