data_image0
_cell_length_a       10.0053
_cell_length_b       10.4308
_cell_length_c       10.048
_cell_angle_alpha    90.3236
_cell_angle_beta     89.6466
_cell_angle_gamma    90.2136

_symmetry_space_group_name_H-M    "P 1"
_symmetry_int_tables_number       1

loop_
  _symmetry_equiv_pos_as_xyz
  'x, y, z'

loop_
  _atom_site_label
  _atom_site_occupancy
  _atom_site_fract_x
  _atom_site_fract_y
  _atom_site_fract_z
  _atom_site_thermal_displace_type
  _atom_site_B_iso_or_equiv
  _atom_site_type_symbol
  Mn1      1.0000 0.12042  0.03687  0.11069  Biso   1.000  Mn
  Zr1      1.0000 0.13520  0.01704  0.62722  Biso   1.000  Zr
  Zr2      1.0000 0.13368  0.51345  0.12569  Biso   1.000  Zr
  Zr3      1.0000 0.13486  0.51672  0.62605  Biso   1.000  Zr
  Zr4      1.0000 0.63442  0.01595  0.12468  Biso   1.000  Zr
  Zr5      1.0000 0.62926  0.01350  0.62288  Biso   1.000  Zr
  Zr6      1.0000 0.63396  0.51619  0.12720  Biso   1.000  Zr
  Zr7      1.0000 0.63326  0.51683  0.62445  Biso   1.000  Zr
  Zr8      1.0000 0.13306  0.23003  0.37138  Biso   1.000  Zr
  Zr9      1.0000 0.13232  0.23778  0.87556  Biso   1.000  Zr
  Zr10     1.0000 0.13685  0.73225  0.37825  Biso   1.000  Zr
  Zr11     1.0000 0.13376  0.73736  0.88048  Biso   1.000  Zr
  Zr12     1.0000 0.63364  0.23293  0.37680  Biso   1.000  Zr
  Zr13     1.0000 0.63149  0.23437  0.87325  Biso   1.000  Zr
  Zr14     1.0000 0.63601  0.73651  0.37422  Biso   1.000  Zr
  Zr15     1.0000 0.63153  0.73604  0.87563  Biso   1.000  Zr
  Zr16     1.0000 0.36635  0.26202  0.12341  Biso   1.000  Zr
  Zr17     1.0000 0.36529  0.26613  0.62481  Biso   1.000  Zr
  Zr18     1.0000 0.36556  0.76354  0.12756  Biso   1.000  Zr
  Zr19     1.0000 0.36635  0.76839  0.62934  Biso   1.000  Zr
  Zr20     1.0000 0.86407  0.26637  0.12313  Biso   1.000  Zr
  Zr21     1.0000 0.86576  0.26531  0.62452  Biso   1.000  Zr
  Zr22     1.0000 0.87293  0.76397  0.12037  Biso   1.000  Zr
  Zr23     1.0000 0.86817  0.76615  0.62398  Biso   1.000  Zr
  Zr24     1.0000 0.36735  0.48248  0.37562  Biso   1.000  Zr
  Zr25     1.0000 0.36578  0.48647  0.87550  Biso   1.000  Zr
  Zr26     1.0000 0.36318  0.98094  0.37186  Biso   1.000  Zr
  Zr27     1.0000 0.35822  0.98487  0.88448  Biso   1.000  Zr
  Zr28     1.0000 0.86619  0.48388  0.37574  Biso   1.000  Zr
  Zr29     1.0000 0.86467  0.48605  0.87395  Biso   1.000  Zr
  Zr30     1.0000 0.86951  0.98730  0.37537  Biso   1.000  Zr
  Zr31     1.0000 0.86409  0.98572  0.87222  Biso   1.000  Zr
  O1       1.0000 0.03596  0.18266  0.18618  Biso   1.000  O
  O2       1.0000 0.03247  0.18274  0.69947  Biso   1.000  O
  O3       1.0000 0.03723  0.68455  0.19518  Biso   1.000  O
  O4       1.0000 0.03606  0.68520  0.69539  Biso   1.000  O
  O5       1.0000 0.53137  0.18116  0.19941  Biso   1.000  O
  O6       1.0000 0.53501  0.18464  0.69246  Biso   1.000  O
  O7       1.0000 0.53689  0.68369  0.19700  Biso   1.000  O
  O8       1.0000 0.53444  0.68332  0.69659  Biso   1.000  O
  O9       1.0000 0.03526  0.06699  0.44899  Biso   1.000  O
  O10      1.0000 0.03412  0.06689  0.95108  Biso   1.000  O
  O11      1.0000 0.03521  0.56442  0.44649  Biso   1.000  O
  O12      1.0000 0.03246  0.56883  0.94740  Biso   1.000  O
  O13      1.0000 0.53522  0.06574  0.44386  Biso   1.000  O
  O14      1.0000 0.52907  0.07020  0.95038  Biso   1.000  O
  O15      1.0000 0.53758  0.56716  0.44285  Biso   1.000  O
  O16      1.0000 0.53458  0.56776  0.94627  Biso   1.000  O
  O17      1.0000 0.46510  0.43141  0.19324  Biso   1.000  O
  O18      1.0000 0.46356  0.43450  0.69437  Biso   1.000  O
  O19      1.0000 0.47305  0.92929  0.19863  Biso   1.000  O
  O20      1.0000 0.46328  0.93486  0.70195  Biso   1.000  O
  O21      1.0000 0.96557  0.43100  0.19611  Biso   1.000  O
  O22      1.0000 0.96430  0.43368  0.69362  Biso   1.000  O
  O23      1.0000 0.99511  0.94308  0.18464  Biso   1.000  O
  O24      1.0000 0.96473  0.93488  0.69359  Biso   1.000  O
  O25      1.0000 0.46602  0.31699  0.44593  Biso   1.000  O
  O26      1.0000 0.46125  0.31597  0.94302  Biso   1.000  O
  O27      1.0000 0.47040  0.81919  0.45319  Biso   1.000  O
  O28      1.0000 0.45942  0.81808  0.94469  Biso   1.000  O
  O29      1.0000 0.96396  0.31349  0.44191  Biso   1.000  O
  O30      1.0000 0.96267  0.31869  0.94329  Biso   1.000  O
  O31      1.0000 0.96623  0.81827  0.44076  Biso   1.000  O
  O32      1.0000 0.96024  0.81742  0.93940  Biso   1.000  O
  O33      1.0000 0.25333  0.10024  0.23894  Biso   1.000  O
  O34      1.0000 0.26982  0.11908  0.75021  Biso   1.000  O
  O35      1.0000 0.26806  0.60720  0.24914  Biso   1.000  O
  O36      1.0000 0.26872  0.61927  0.75152  Biso   1.000  O
  O37      1.0000 0.77167  0.11627  0.24650  Biso   1.000  O
  O38      1.0000 0.76615  0.11577  0.74661  Biso   1.000  O
  O39      1.0000 0.77235  0.61584  0.24806  Biso   1.000  O
  O40      1.0000 0.76872  0.61771  0.74855  Biso   1.000  O
  O41      1.0000 0.27104  0.13314  0.49457  Biso   1.000  O
  O42      1.0000 0.25908  0.13413  0.00102  Biso   1.000  O
  O43      1.0000 0.27272  0.63239  0.50084  Biso   1.000  O
  O44      1.0000 0.26794  0.63411  0.00015  Biso   1.000  O
  O45      1.0000 0.77054  0.13237  0.49715  Biso   1.000  O
  O46      1.0000 0.76750  0.13459  0.99586  Biso   1.000  O
  O47      1.0000 0.76953  0.63463  0.49829  Biso   1.000  O
  O48      1.0000 0.76859  0.63547  0.99902  Biso   1.000  O
  O49      1.0000 0.22938  0.38181  0.49815  Biso   1.000  O
  O50      1.0000 0.22984  0.38450  0.99834  Biso   1.000  O
  O51      1.0000 0.23095  0.88295  0.50549  Biso   1.000  O
  O52      1.0000 0.22149  0.89087  0.01474  Biso   1.000  O
  O53      1.0000 0.73106  0.38295  0.49923  Biso   1.000  O
  O54      1.0000 0.72877  0.38409  0.99805  Biso   1.000  O
  O55      1.0000 0.73378  0.88497  0.49654  Biso   1.000  O
  O56      1.0000 0.72898  0.88507  0.99656  Biso   1.000  O
  O57      1.0000 0.23330  0.35962  0.24781  Biso   1.000  O
  O58      1.0000 0.22912  0.36862  0.74879  Biso   1.000  O
  O59      1.0000 0.24968  0.84803  0.26420  Biso   1.000  O
  O60      1.0000 0.22831  0.86968  0.75595  Biso   1.000  O
  O61      1.0000 0.72926  0.36606  0.24862  Biso   1.000  O
  O62      1.0000 0.72957  0.36714  0.74809  Biso   1.000  O
  O63      1.0000 0.74602  0.86732  0.24530  Biso   1.000  O
  O64      1.0000 0.73011  0.86634  0.74694  Biso   1.000  O
