data_image0
_cell_length_a       10.066
_cell_length_b       10.2863
_cell_length_c       10.4771
_cell_angle_alpha    89.8686
_cell_angle_beta     89.9461
_cell_angle_gamma    90.0249

_symmetry_space_group_name_H-M    "P 1"
_symmetry_int_tables_number       1

loop_
  _symmetry_equiv_pos_as_xyz
  'x, y, z'

loop_
  _atom_site_label
  _atom_site_occupancy
  _atom_site_fract_x
  _atom_site_fract_y
  _atom_site_fract_z
  _atom_site_thermal_displace_type
  _atom_site_B_iso_or_equiv
  _atom_site_type_symbol
  Mn1      1.0000 0.13349  0.02464  0.17975  Biso   1.000  Mn
  Zr1      1.0000 0.13895  0.02104  0.67082  Biso   1.000  Zr
  Zr2      1.0000 0.13957  0.52069  0.17115  Biso   1.000  Zr
  Zr3      1.0000 0.13908  0.52102  0.67177  Biso   1.000  Zr
  Zr4      1.0000 0.13985  0.23019  0.41946  Biso   1.000  Zr
  Zr5      1.0000 0.13773  0.22345  0.92609  Biso   1.000  Zr
  Zr6      1.0000 0.13832  0.73086  0.41934  Biso   1.000  Zr
  Zr7      1.0000 0.14065  0.73026  0.92131  Biso   1.000  Zr
  Zr8      1.0000 0.35884  0.26783  0.17190  Biso   1.000  Zr
  Zr9      1.0000 0.36087  0.27152  0.67224  Biso   1.000  Zr
  Zr10     1.0000 0.35673  0.77525  0.17002  Biso   1.000  Zr
  Zr11     1.0000 0.36162  0.77131  0.67035  Biso   1.000  Zr
  Zr12     1.0000 0.36130  0.48023  0.42119  Biso   1.000  Zr
  Zr13     1.0000 0.36104  0.47787  0.92167  Biso   1.000  Zr
  Zr14     1.0000 0.35846  0.97985  0.41839  Biso   1.000  Zr
  Zr15     1.0000 0.35873  0.97730  0.92411  Biso   1.000  Zr
  Zr16     1.0000 0.63878  0.02185  0.07781  Biso   1.000  Zr
  Zr17     1.0000 0.63757  0.02072  0.57779  Biso   1.000  Zr
  Zr18     1.0000 0.63835  0.52161  0.08005  Biso   1.000  Zr
  Zr19     1.0000 0.63908  0.52127  0.58020  Biso   1.000  Zr
  Zr20     1.0000 0.63799  0.22933  0.32889  Biso   1.000  Zr
  Zr21     1.0000 0.63900  0.22938  0.82947  Biso   1.000  Zr
  Zr22     1.0000 0.63786  0.72968  0.32764  Biso   1.000  Zr
  Zr23     1.0000 0.63886  0.72924  0.83032  Biso   1.000  Zr
  Zr24     1.0000 0.86452  0.26835  0.08149  Biso   1.000  Zr
  Zr25     1.0000 0.86112  0.27080  0.57846  Biso   1.000  Zr
  Zr26     1.0000 0.86627  0.77306  0.07835  Biso   1.000  Zr
  Zr27     1.0000 0.86042  0.77100  0.57832  Biso   1.000  Zr
  Zr28     1.0000 0.86070  0.47984  0.32887  Biso   1.000  Zr
  Zr29     1.0000 0.86211  0.47813  0.83084  Biso   1.000  Zr
  Zr30     1.0000 0.86415  0.98128  0.32683  Biso   1.000  Zr
  Zr31     1.0000 0.86054  0.97911  0.82759  Biso   1.000  Zr
  O1       1.0000 0.03423  0.15751  0.08875  Biso   1.000  O
  O2       1.0000 0.03034  0.15991  0.57601  Biso   1.000  O
  O3       1.0000 0.03368  0.66562  0.08434  Biso   1.000  O
  O4       1.0000 0.03228  0.66522  0.58233  Biso   1.000  O
  O5       1.0000 0.03842  0.08624  0.32030  Biso   1.000  O
  O6       1.0000 0.03070  0.08619  0.82970  Biso   1.000  O
  O7       1.0000 0.03287  0.58462  0.33340  Biso   1.000  O
  O8       1.0000 0.03323  0.58384  0.83466  Biso   1.000  O
  O9       1.0000 0.46648  0.41532  0.08584  Biso   1.000  O
  O10      1.0000 0.46615  0.41749  0.58529  Biso   1.000  O
  O11      1.0000 0.46942  0.91468  0.08395  Biso   1.000  O
  O12      1.0000 0.46586  0.91671  0.58372  Biso   1.000  O
  O13      1.0000 0.46421  0.33126  0.33615  Biso   1.000  O
  O14      1.0000 0.46748  0.33415  0.83466  Biso   1.000  O
  O15      1.0000 0.46424  0.83456  0.33390  Biso   1.000  O
  O16      1.0000 0.46613  0.83372  0.83532  Biso   1.000  O
  O17      1.0000 0.27033  0.12134  0.29250  Biso   1.000  O
  O18      1.0000 0.27598  0.12378  0.79870  Biso   1.000  O
  O19      1.0000 0.27530  0.62701  0.29488  Biso   1.000  O
  O20      1.0000 0.27651  0.62397  0.79481  Biso   1.000  O
  O21      1.0000 0.26535  0.11564  0.05647  Biso   1.000  O
  O22      1.0000 0.27607  0.12686  0.54493  Biso   1.000  O
  O23      1.0000 0.27597  0.62484  0.04485  Biso   1.000  O
  O24      1.0000 0.27582  0.62653  0.54448  Biso   1.000  O
  O25      1.0000 0.22454  0.37554  0.29491  Biso   1.000  O
  O26      1.0000 0.22400  0.37335  0.79576  Biso   1.000  O
  O27      1.0000 0.21833  0.88185  0.28893  Biso   1.000  O
  O28      1.0000 0.22394  0.87411  0.79335  Biso   1.000  O
  O29      1.0000 0.22508  0.37232  0.04545  Biso   1.000  O
  O30      1.0000 0.22363  0.37581  0.54450  Biso   1.000  O
  O31      1.0000 0.22283  0.87513  0.04422  Biso   1.000  O
  O32      1.0000 0.22348  0.87615  0.54280  Biso   1.000  O
  O33      1.0000 0.53224  0.16578  0.16624  Biso   1.000  O
  O34      1.0000 0.53282  0.16626  0.66609  Biso   1.000  O
  O35      1.0000 0.53260  0.66817  0.16508  Biso   1.000  O
  O36      1.0000 0.53404  0.66730  0.66552  Biso   1.000  O
  O37      1.0000 0.53218  0.08372  0.41498  Biso   1.000  O
  O38      1.0000 0.52999  0.08668  0.91850  Biso   1.000  O
  O39      1.0000 0.53381  0.58367  0.41502  Biso   1.000  O
  O40      1.0000 0.53428  0.58246  0.91532  Biso   1.000  O
  O41      1.0000 0.96789  0.41574  0.16625  Biso   1.000  O
  O42      1.0000 0.96828  0.41284  0.66777  Biso   1.000  O
  O43      1.0000 0.98459  0.92322  0.16388  Biso   1.000  O
  O44      1.0000 0.96770  0.91437  0.66562  Biso   1.000  O
  O45      1.0000 0.96686  0.33371  0.41489  Biso   1.000  O
  O46      1.0000 0.96883  0.33173  0.91927  Biso   1.000  O
  O47      1.0000 0.96702  0.83618  0.41434  Biso   1.000  O
  O48      1.0000 0.96790  0.83497  0.91586  Biso   1.000  O
  O49      1.0000 0.77557  0.12427  0.95442  Biso   1.000  O
  O50      1.0000 0.77703  0.12375  0.45301  Biso   1.000  O
  O51      1.0000 0.77776  0.62613  0.95724  Biso   1.000  O
  O52      1.0000 0.77542  0.62461  0.45531  Biso   1.000  O
  O53      1.0000 0.77485  0.12558  0.20469  Biso   1.000  O
  O54      1.0000 0.77531  0.12563  0.70400  Biso   1.000  O
  O55      1.0000 0.77613  0.62654  0.20555  Biso   1.000  O
  O56      1.0000 0.77663  0.62540  0.70652  Biso   1.000  O
  O57      1.0000 0.72557  0.37423  0.95645  Biso   1.000  O
  O58      1.0000 0.72385  0.37395  0.45618  Biso   1.000  O
  O59      1.0000 0.72475  0.87490  0.95500  Biso   1.000  O
  O60      1.0000 0.72384  0.87474  0.45377  Biso   1.000  O
  O61      1.0000 0.72480  0.37543  0.20597  Biso   1.000  O
  O62      1.0000 0.72449  0.37607  0.70597  Biso   1.000  O
  O63      1.0000 0.73382  0.87698  0.20433  Biso   1.000  O
  O64      1.0000 0.72371  0.87573  0.70462  Biso   1.000  O
