data_image0
_cell_length_a       10.2442
_cell_length_b       10.2987
_cell_length_c       5.32213
_cell_angle_alpha    89.8139
_cell_angle_beta     79.6658
_cell_angle_gamma    90.6559

_symmetry_space_group_name_H-M    "P 1"
_symmetry_int_tables_number       1

loop_
  _symmetry_equiv_pos_as_xyz
  'x, y, z'

loop_
  _atom_site_label
  _atom_site_occupancy
  _atom_site_fract_x
  _atom_site_fract_y
  _atom_site_fract_z
  _atom_site_thermal_displace_type
  _atom_site_B_iso_or_equiv
  _atom_site_type_symbol
  Zr1      1.0000 0.13591  0.02282  0.29640  Biso   1.000  Zr
  Zr2      1.0000 0.14158  0.23499  0.78386  Biso   1.000  Zr
  Zr3      1.0000 0.35581  0.27510  0.19666  Biso   1.000  Zr
  Zr4      1.0000 0.35002  0.48067  0.71090  Biso   1.000  Zr
  O1       1.0000 0.03954  0.16557  0.14770  Biso   1.000  O
  O2       1.0000 0.03466  0.08745  0.64773  Biso   1.000  O
  O3       1.0000 0.47393  0.37862  0.40536  Biso   1.000  O
  O4       1.0000 0.47847  0.35328  0.87320  Biso   1.000  O
  O5       1.0000 0.28389  0.12949  0.47352  Biso   1.000  O
  O6       1.0000 0.29033  0.13109  0.94548  Biso   1.000  O
  O7       1.0000 0.21685  0.38563  0.02008  Biso   1.000  O
  O8       1.0000 0.21398  0.38041  0.50124  Biso   1.000  O
  Zr5      1.0000 0.13493  0.52688  0.29065  Biso   1.000  Zr
  Zr6      1.0000 0.13340  0.73110  0.79499  Biso   1.000  Zr
  Zr7      1.0000 0.36003  0.77046  0.21010  Biso   1.000  Zr
  Zr8      1.0000 0.36196  0.97060  0.70669  Biso   1.000  Zr
  O9       1.0000 0.02525  0.66627  0.15029  Biso   1.000  O
  O10      1.0000 0.02772  0.59327  0.64957  Biso   1.000  O
  O11      1.0000 0.46999  0.90705  0.35505  Biso   1.000  O
  O12      1.0000 0.46811  0.83458  0.85787  Biso   1.000  O
  O13      1.0000 0.27274  0.62954  0.48429  Biso   1.000  O
  O14      1.0000 0.26830  0.62749  0.98423  Biso   1.000  O
  O15      1.0000 0.22492  0.88291  0.02306  Biso   1.000  O
  O16      1.0000 0.22214  0.87105  0.51880  Biso   1.000  O
  Zr9      1.0000 0.64023  0.02194  0.28819  Biso   1.000  Zr
  Zr10     1.0000 0.64288  0.23046  0.80319  Biso   1.000  Zr
  Zr11     1.0000 0.86504  0.27247  0.21429  Biso   1.000  Zr
  Zr12     1.0000 0.86066  0.47888  0.71627  Biso   1.000  Zr
  O17      1.0000 0.53035  0.15768  0.14714  Biso   1.000  O
  O18      1.0000 0.53516  0.08258  0.65741  Biso   1.000  O
  O19      1.0000 0.96508  0.41636  0.35370  Biso   1.000  O
  O20      1.0000 0.96769  0.34064  0.85299  Biso   1.000  O
  O21      1.0000 0.77711  0.12824  0.47969  Biso   1.000  O
  O22      1.0000 0.77940  0.12026  0.98397  Biso   1.000  O
  O23      1.0000 0.72691  0.37646  0.03415  Biso   1.000  O
  O24      1.0000 0.72718  0.37257  0.52966  Biso   1.000  O
  Zr13     1.0000 0.63607  0.51772  0.30243  Biso   1.000  Zr
  Zr14     1.0000 0.63504  0.72376  0.79359  Biso   1.000  Zr
  Zr15     1.0000 0.85689  0.77284  0.21097  Biso   1.000  Zr
  Zr16     1.0000 0.85951  0.97945  0.71011  Biso   1.000  Zr
  O25      1.0000 0.52352  0.64803  0.14527  Biso   1.000  O
  O26      1.0000 0.52525  0.59020  0.63971  Biso   1.000  O
  O27      1.0000 0.96715  0.91469  0.35020  Biso   1.000  O
  O28      1.0000 0.96484  0.84071  0.85345  Biso   1.000  O
  O29      1.0000 0.77017  0.62679  0.48116  Biso   1.000  O
  O30      1.0000 0.77042  0.62151  0.98427  Biso   1.000  O
  O31      1.0000 0.72126  0.87699  0.02272  Biso   1.000  O
  O32      1.0000 0.72388  0.87087  0.52337  Biso   1.000  O
  Mn1      1.0000 0.40960  0.23076  0.64863  Biso   1.000  Mn
