data_image0
_cell_length_a       5.10121
_cell_length_b       10.4404
_cell_length_c       10.1684
_cell_angle_alpha    91.1855
_cell_angle_beta     87.4963
_cell_angle_gamma    89.0258

_symmetry_space_group_name_H-M    "P 1"
_symmetry_int_tables_number       1

loop_
  _symmetry_equiv_pos_as_xyz
  'x, y, z'

loop_
  _atom_site_label
  _atom_site_occupancy
  _atom_site_fract_x
  _atom_site_fract_y
  _atom_site_fract_z
  _atom_site_thermal_displace_type
  _atom_site_B_iso_or_equiv
  _atom_site_type_symbol
  Zr1      1.0000 0.23200  0.95130  0.12362  Biso   1.000  Zr
  Zr2      1.0000 0.29570  0.26322  0.39375  Biso   1.000  Zr
  Zr3      1.0000 0.74348  0.28844  0.13307  Biso   1.000  Zr
  Zr4      1.0000 0.75532  0.99823  0.36498  Biso   1.000  Zr
  O1       1.0000 0.93372  0.15214  0.00397  Biso   1.000  O
  O2       1.0000 0.05952  0.07747  0.27027  Biso   1.000  O
  O3       1.0000 0.03850  0.33978  0.25827  Biso   1.000  O
  O4       1.0000 0.97081  0.40585  0.99672  Biso   1.000  O
  O5       1.0000 0.56387  0.15932  0.26314  Biso   1.000  O
  O6       1.0000 0.43074  0.07873  0.99343  Biso   1.000  O
  O7       1.0000 0.43585  0.33379  0.01712  Biso   1.000  O
  O8       1.0000 0.51129  0.41798  0.26345  Biso   1.000  O
  Zr5      1.0000 0.25195  0.01292  0.62218  Biso   1.000  Zr
  Zr6      1.0000 0.20716  0.24703  0.87856  Biso   1.000  Zr
  Zr7      1.0000 0.75047  0.24414  0.64222  Biso   1.000  Zr
  Zr8      1.0000 0.72318  0.99838  0.87976  Biso   1.000  Zr
  O9       1.0000 0.04934  0.16762  0.52302  Biso   1.000  O
  O10      1.0000 0.97857  0.10548  0.75859  Biso   1.000  O
  O11      1.0000 0.01168  0.36269  0.74457  Biso   1.000  O
  O12      1.0000 0.07104  0.42146  0.49403  Biso   1.000  O
  O13      1.0000 0.48059  0.14806  0.75257  Biso   1.000  O
  O14      1.0000 0.53801  0.10940  0.50787  Biso   1.000  O
  O15      1.0000 0.56428  0.36282  0.51115  Biso   1.000  O
  O16      1.0000 0.51412  0.39761  0.76253  Biso   1.000  O
  Zr9      1.0000 0.25177  0.50158  0.12397  Biso   1.000  Zr
  Zr10     1.0000 0.25863  0.76192  0.38231  Biso   1.000  Zr
  Zr11     1.0000 0.73565  0.73206  0.11939  Biso   1.000  Zr
  Zr12     1.0000 0.78029  0.50236  0.38928  Biso   1.000  Zr
  O17      1.0000 0.02595  0.64574  0.98629  Biso   1.000  O
  O18      1.0000 0.92313  0.58102  0.22267  Biso   1.000  O
  O19      1.0000 0.98760  0.83069  0.25029  Biso   1.000  O
  O20      1.0000 0.96361  0.88743  0.99321  Biso   1.000  O
  O21      1.0000 0.42036  0.65827  0.23060  Biso   1.000  O
  O22      1.0000 0.53695  0.58003  0.00440  Biso   1.000  O
  O23      1.0000 0.48420  0.82889  0.99156  Biso   1.000  O
  O24      1.0000 0.51318  0.89266  0.24869  Biso   1.000  O
  Zr13     1.0000 0.29845  0.49790  0.63320  Biso   1.000  Zr
  Zr14     1.0000 0.23204  0.75781  0.85682  Biso   1.000  Zr
  Zr15     1.0000 0.74746  0.76381  0.61897  Biso   1.000  Zr
  Zr16     1.0000 0.78580  0.51156  0.86028  Biso   1.000  Zr
  O25      1.0000 0.96790  0.66528  0.47675  Biso   1.000  O
  O26      1.0000 0.02284  0.61584  0.73263  Biso   1.000  O
  O27      1.0000 0.98974  0.86116  0.74229  Biso   1.000  O
  O28      1.0000 0.00548  0.91230  0.49876  Biso   1.000  O
  O29      1.0000 0.52271  0.64950  0.74780  Biso   1.000  O
  O30      1.0000 0.48804  0.61360  0.49489  Biso   1.000  O
  O31      1.0000 0.50203  0.86453  0.49993  Biso   1.000  O
  O32      1.0000 0.48672  0.90139  0.74746  Biso   1.000  O
  Mo1      1.0000 0.24412  0.19301  0.13664  Biso   1.000  Mo
