data_image0
_cell_length_a       10.2437
_cell_length_b       10.2876
_cell_length_c       5.25744
_cell_angle_alpha    89.9934
_cell_angle_beta     80.3765
_cell_angle_gamma    89.6636

_symmetry_space_group_name_H-M    "P 1"
_symmetry_int_tables_number       1

loop_
  _symmetry_equiv_pos_as_xyz
  'x, y, z'

loop_
  _atom_site_label
  _atom_site_occupancy
  _atom_site_fract_x
  _atom_site_fract_y
  _atom_site_fract_z
  _atom_site_thermal_displace_type
  _atom_site_B_iso_or_equiv
  _atom_site_type_symbol
  N1       1.0000 0.04117  0.04911  0.32951  Biso   1.000  N
  Zr1      1.0000 0.14186  0.52227  0.29110  Biso   1.000  Zr
  Zr2      1.0000 0.63556  0.02069  0.29844  Biso   1.000  Zr
  Zr3      1.0000 0.63390  0.52070  0.29407  Biso   1.000  Zr
  Zr4      1.0000 0.15727  0.22834  0.78078  Biso   1.000  Zr
  Zr5      1.0000 0.14813  0.73533  0.78662  Biso   1.000  Zr
  Zr6      1.0000 0.63574  0.22908  0.79230  Biso   1.000  Zr
  Zr7      1.0000 0.63606  0.72684  0.79401  Biso   1.000  Zr
  Zr8      1.0000 0.35750  0.26210  0.21153  Biso   1.000  Zr
  Zr9      1.0000 0.35744  0.77876  0.20800  Biso   1.000  Zr
  Zr10     1.0000 0.85418  0.27388  0.21447  Biso   1.000  Zr
  Zr11     1.0000 0.86115  0.76134  0.19927  Biso   1.000  Zr
  Zr12     1.0000 0.36224  0.47808  0.70749  Biso   1.000  Zr
  Zr13     1.0000 0.35609  0.97847  0.71142  Biso   1.000  Zr
  Zr14     1.0000 0.86969  0.47426  0.70947  Biso   1.000  Zr
  Zr15     1.0000 0.85064  0.97708  0.72790  Biso   1.000  Zr
  O1       1.0000 0.02571  0.13303  0.14768  Biso   1.000  O
  O2       1.0000 0.03564  0.67252  0.16724  Biso   1.000  O
  O3       1.0000 0.53874  0.16890  0.16146  Biso   1.000  O
  O4       1.0000 0.53570  0.66537  0.15311  Biso   1.000  O
  O5       1.0000 0.02646  0.10013  0.56882  Biso   1.000  O
  O6       1.0000 0.03595  0.58096  0.66110  Biso   1.000  O
  O7       1.0000 0.54068  0.07983  0.66326  Biso   1.000  O
  O8       1.0000 0.53368  0.58361  0.65537  Biso   1.000  O
  O9       1.0000 0.46621  0.41402  0.34485  Biso   1.000  O
  O10      1.0000 0.47210  0.91377  0.35004  Biso   1.000  O
  O11      1.0000 0.97135  0.40697  0.34941  Biso   1.000  O
  O12      1.0000 0.96834  0.94399  0.33605  Biso   1.000  O
  O13      1.0000 0.46813  0.33527  0.84571  Biso   1.000  O
  O14      1.0000 0.47619  0.83965  0.84869  Biso   1.000  O
  O15      1.0000 0.96985  0.32148  0.85756  Biso   1.000  O
  O16      1.0000 0.96856  0.84043  0.84107  Biso   1.000  O
  O17      1.0000 0.28590  0.13468  0.49738  Biso   1.000  O
  O18      1.0000 0.27674  0.62540  0.47680  Biso   1.000  O
  O19      1.0000 0.77838  0.12804  0.48204  Biso   1.000  O
  O20      1.0000 0.77702  0.62445  0.48106  Biso   1.000  O
  O21      1.0000 0.28365  0.13018  0.96974  Biso   1.000  O
  O22      1.0000 0.27614  0.61786  0.98127  Biso   1.000  O
  O23      1.0000 0.77654  0.12079  0.98420  Biso   1.000  O
  O24      1.0000 0.78090  0.62229  0.98304  Biso   1.000  O
  O25      1.0000 0.22227  0.37577  0.01517  Biso   1.000  O
  O26      1.0000 0.23367  0.87074  0.00032  Biso   1.000  O
  O27      1.0000 0.72829  0.37977  0.02072  Biso   1.000  O
  O28      1.0000 0.72483  0.87705  0.02396  Biso   1.000  O
  O29      1.0000 0.22437  0.37223  0.51590  Biso   1.000  O
  O30      1.0000 0.23385  0.86522  0.52178  Biso   1.000  O
  O31      1.0000 0.72641  0.37098  0.52177  Biso   1.000  O
  O32      1.0000 0.73915  0.86825  0.51705  Biso   1.000  O
