data_image0
_cell_length_a       10.2538
_cell_length_b       5.14629
_cell_length_c       10.5169
_cell_angle_alpha    89.7183
_cell_angle_beta     80.3697
_cell_angle_gamma    89.6993

_symmetry_space_group_name_H-M    "P 1"
_symmetry_int_tables_number       1

loop_
  _symmetry_equiv_pos_as_xyz
  'x, y, z'

loop_
  _atom_site_label
  _atom_site_occupancy
  _atom_site_fract_x
  _atom_site_fract_y
  _atom_site_fract_z
  _atom_site_thermal_displace_type
  _atom_site_B_iso_or_equiv
  _atom_site_type_symbol
  N1       1.0000 0.04018  0.11402  0.17467  Biso   1.000  N
  Zr1      1.0000 0.14144  0.04110  0.64400  Biso   1.000  Zr
  Zr2      1.0000 0.63271  0.04392  0.14605  Biso   1.000  Zr
  Zr3      1.0000 0.63770  0.03549  0.65109  Biso   1.000  Zr
  Zr4      1.0000 0.15327  0.46578  0.38935  Biso   1.000  Zr
  Zr5      1.0000 0.15441  0.45805  0.89363  Biso   1.000  Zr
  Zr6      1.0000 0.63389  0.45106  0.39658  Biso   1.000  Zr
  Zr7      1.0000 0.63561  0.45709  0.89501  Biso   1.000  Zr
  Zr8      1.0000 0.35201  0.54283  0.10522  Biso   1.000  Zr
  Zr9      1.0000 0.36506  0.54228  0.60356  Biso   1.000  Zr
  Zr10     1.0000 0.84908  0.53510  0.09896  Biso   1.000  Zr
  Zr11     1.0000 0.86595  0.53127  0.60363  Biso   1.000  Zr
  Zr12     1.0000 0.35644  0.96041  0.34708  Biso   1.000  Zr
  Zr13     1.0000 0.35839  0.95581  0.86074  Biso   1.000  Zr
  Zr14     1.0000 0.84955  0.94959  0.36507  Biso   1.000  Zr
  Zr15     1.0000 0.86955  0.95032  0.85319  Biso   1.000  Zr
  O1       1.0000 0.03270  0.30855  0.09452  Biso   1.000  O
  O2       1.0000 0.02866  0.29561  0.55770  Biso   1.000  O
  O3       1.0000 0.53777  0.33818  0.07921  Biso   1.000  O
  O4       1.0000 0.53656  0.32865  0.57883  Biso   1.000  O
  O5       1.0000 0.02643  0.18886  0.29799  Biso   1.000  O
  O6       1.0000 0.03511  0.17193  0.82419  Biso   1.000  O
  O7       1.0000 0.53873  0.15448  0.33034  Biso   1.000  O
  O8       1.0000 0.53731  0.16586  0.82852  Biso   1.000  O
  O9       1.0000 0.46970  0.82613  0.17250  Biso   1.000  O
  O10      1.0000 0.46873  0.82650  0.67518  Biso   1.000  O
  O11      1.0000 0.96609  0.91071  0.16544  Biso   1.000  O
  O12      1.0000 0.97435  0.80424  0.67758  Biso   1.000  O
  O13      1.0000 0.46767  0.66504  0.42243  Biso   1.000  O
  O14      1.0000 0.47496  0.68100  0.92504  Biso   1.000  O
  O15      1.0000 0.96928  0.67629  0.41736  Biso   1.000  O
  O16      1.0000 0.97143  0.65832  0.93605  Biso   1.000  O
  O17      1.0000 0.28551  0.27073  0.25074  Biso   1.000  O
  O18      1.0000 0.27686  0.25173  0.73670  Biso   1.000  O
  O19      1.0000 0.77612  0.25511  0.24078  Biso   1.000  O
  O20      1.0000 0.78032  0.24846  0.74012  Biso   1.000  O
  O21      1.0000 0.27647  0.24070  0.49370  Biso   1.000  O
  O22      1.0000 0.28866  0.25852  0.97906  Biso   1.000  O
  O23      1.0000 0.77448  0.23500  0.49169  Biso   1.000  O
  O24      1.0000 0.77981  0.24798  0.99168  Biso   1.000  O
  O25      1.0000 0.23021  0.74097  0.99921  Biso   1.000  O
  O26      1.0000 0.22525  0.75267  0.50777  Biso   1.000  O
  O27      1.0000 0.72753  0.76325  0.00927  Biso   1.000  O
  O28      1.0000 0.72501  0.74572  0.51288  Biso   1.000  O
  O29      1.0000 0.22897  0.73997  0.26137  Biso   1.000  O
  O30      1.0000 0.22760  0.73825  0.75554  Biso   1.000  O
  O31      1.0000 0.73492  0.73901  0.25872  Biso   1.000  O
  O32      1.0000 0.73154  0.73745  0.76008  Biso   1.000  O
