data_image0
_cell_length_a       10.1935
_cell_length_b       10.275
_cell_length_c       5.06249
_cell_angle_alpha    89.8207
_cell_angle_beta     91.7676
_cell_angle_gamma    89.3832

_symmetry_space_group_name_H-M    "P 1"
_symmetry_int_tables_number       1

loop_
  _symmetry_equiv_pos_as_xyz
  'x, y, z'

loop_
  _atom_site_label
  _atom_site_occupancy
  _atom_site_fract_x
  _atom_site_fract_y
  _atom_site_fract_z
  _atom_site_thermal_displace_type
  _atom_site_B_iso_or_equiv
  _atom_site_type_symbol
  Zr1      1.0000 0.13500  0.00312  0.25146  Biso   1.000  Zr
  Zr2      1.0000 0.15411  0.24437  0.72112  Biso   1.000  Zr
  Zr3      1.0000 0.38192  0.25935  0.24659  Biso   1.000  Zr
  Zr4      1.0000 0.38736  0.99633  0.75979  Biso   1.000  Zr
  O1       1.0000 0.91292  0.15554  0.98775  Biso   1.000  O
  O2       1.0000 0.00974  0.11232  0.52164  Biso   1.000  O
  O3       1.0000 0.01121  0.37173  0.58758  Biso   1.000  O
  O4       1.0000 0.96779  0.42952  0.09790  Biso   1.000  O
  O5       1.0000 0.25961  0.14214  0.46253  Biso   1.000  O
  O6       1.0000 0.25476  0.10395  0.96969  Biso   1.000  O
  O7       1.0000 0.24133  0.36294  0.00726  Biso   1.000  O
  O8       1.0000 0.26033  0.39624  0.50076  Biso   1.000  O
  Zr5      1.0000 0.13250  0.51335  0.25826  Biso   1.000  Zr
  Zr6      1.0000 0.12806  0.76743  0.74672  Biso   1.000  Zr
  Zr7      1.0000 0.38207  0.74808  0.26236  Biso   1.000  Zr
  Zr8      1.0000 0.37536  0.50485  0.76403  Biso   1.000  Zr
  O9       1.0000 0.01161  0.66267  0.00154  Biso   1.000  O
  O10      1.0000 0.00512  0.61845  0.50718  Biso   1.000  O
  O11      1.0000 0.00814  0.86106  0.45773  Biso   1.000  O
  O12      1.0000 0.02559  0.92663  0.94564  Biso   1.000  O
  O13      1.0000 0.25314  0.65004  0.50744  Biso   1.000  O
  O14      1.0000 0.25693  0.60949  0.01021  Biso   1.000  O
  O15      1.0000 0.26121  0.85721  0.01700  Biso   1.000  O
  O16      1.0000 0.25638  0.89737  0.51496  Biso   1.000  O
  Zr9      1.0000 0.61730  0.00893  0.25767  Biso   1.000  Zr
  Zr10     1.0000 0.63287  0.24034  0.76550  Biso   1.000  Zr
  Zr11     1.0000 0.88562  0.27226  0.32402  Biso   1.000  Zr
  Zr12     1.0000 0.86740  0.99184  0.71189  Biso   1.000  Zr
  O17      1.0000 0.49440  0.14626  0.01119  Biso   1.000  O
  O18      1.0000 0.50087  0.10709  0.51320  Biso   1.000  O
  O19      1.0000 0.50981  0.35169  0.50326  Biso   1.000  O
  O20      1.0000 0.49274  0.39606  0.00852  Biso   1.000  O
  O21      1.0000 0.75074  0.14306  0.47898  Biso   1.000  O
  O22      1.0000 0.70923  0.06082  0.92325  Biso   1.000  O
  O23      1.0000 0.72525  0.32890  0.08075  Biso   1.000  O
  O24      1.0000 0.75755  0.39418  0.56594  Biso   1.000  O
  Zr13     1.0000 0.62899  0.48832  0.27161  Biso   1.000  Zr
  Zr14     1.0000 0.62473  0.73715  0.76575  Biso   1.000  Zr
  Zr15     1.0000 0.87129  0.74217  0.25322  Biso   1.000  Zr
  Zr16     1.0000 0.89001  0.51732  0.76300  Biso   1.000  Zr
  O25      1.0000 0.50622  0.64094  0.02362  Biso   1.000  O
  O26      1.0000 0.50303  0.60141  0.52188  Biso   1.000  O
  O27      1.0000 0.50817  0.85511  0.50905  Biso   1.000  O
  O28      1.0000 0.51131  0.88523  0.00668  Biso   1.000  O
  O29      1.0000 0.75161  0.64015  0.50449  Biso   1.000  O
  O30      1.0000 0.74995  0.59138  0.01569  Biso   1.000  O
  O31      1.0000 0.78865  0.82525  0.91389  Biso   1.000  O
  O32      1.0000 0.75987  0.89248  0.41896  Biso   1.000  O
  N1       1.0000 0.03221  0.19644  0.05095  Biso   1.000  N
