data_image0
_cell_length_a       10.0382
_cell_length_b       10.4646
_cell_length_c       5.07145
_cell_angle_alpha    89.5695
_cell_angle_beta     88.9568
_cell_angle_gamma    90.6898

_symmetry_space_group_name_H-M    "P 1"
_symmetry_int_tables_number       1

loop_
  _symmetry_equiv_pos_as_xyz
  'x, y, z'

loop_
  _atom_site_label
  _atom_site_occupancy
  _atom_site_fract_x
  _atom_site_fract_y
  _atom_site_fract_z
  _atom_site_thermal_displace_type
  _atom_site_B_iso_or_equiv
  _atom_site_type_symbol
  Zr1      1.0000 0.14822  0.00317  0.24357  Biso   1.000  Zr
  Zr2      1.0000 0.13845  0.23352  0.80678  Biso   1.000  Zr
  Zr3      1.0000 0.36413  0.26561  0.26986  Biso   1.000  Zr
  Zr4      1.0000 0.36798  0.48359  0.75689  Biso   1.000  Zr
  O1       1.0000 0.01000  0.20433  0.48288  Biso   1.000  O
  O2       1.0000 0.04660  0.05373  0.87186  Biso   1.000  O
  O3       1.0000 0.46367  0.43357  0.39425  Biso   1.000  O
  O4       1.0000 0.46474  0.31613  0.89261  Biso   1.000  O
  O5       1.0000 0.26001  0.11804  0.51192  Biso   1.000  O
  O6       1.0000 0.28692  0.12541  0.00940  Biso   1.000  O
  O7       1.0000 0.23492  0.38352  0.02201  Biso   1.000  O
  O8       1.0000 0.22586  0.36457  0.52257  Biso   1.000  O
  Zr5      1.0000 0.13520  0.51802  0.25866  Biso   1.000  Zr
  Zr6      1.0000 0.13642  0.73257  0.75119  Biso   1.000  Zr
  Zr7      1.0000 0.37238  0.76219  0.24670  Biso   1.000  Zr
  Zr8      1.0000 0.37261  0.98485  0.74343  Biso   1.000  Zr
  O9       1.0000 0.03883  0.68798  0.38658  Biso   1.000  O
  O10      1.0000 0.03811  0.56775  0.88798  Biso   1.000  O
  O11      1.0000 0.46752  0.93415  0.38157  Biso   1.000  O
  O12      1.0000 0.47051  0.81799  0.88741  Biso   1.000  O
  O13      1.0000 0.27164  0.61509  0.50077  Biso   1.000  O
  O14      1.0000 0.27147  0.63225  0.99964  Biso   1.000  O
  O15      1.0000 0.23741  0.87795  0.99100  Biso   1.000  O
  O16      1.0000 0.23853  0.86262  0.49538  Biso   1.000  O
  Zr9      1.0000 0.63784  0.01672  0.24157  Biso   1.000  Zr
  Zr10     1.0000 0.63244  0.23544  0.74216  Biso   1.000  Zr
  Zr11     1.0000 0.85825  0.27607  0.22507  Biso   1.000  Zr
  Zr12     1.0000 0.86784  0.48944  0.74025  Biso   1.000  Zr
  O17      1.0000 0.53299  0.18230  0.38967  Biso   1.000  O
  O18      1.0000 0.54156  0.06461  0.88096  Biso   1.000  O
  O19      1.0000 0.96003  0.44150  0.37166  Biso   1.000  O
  O20      1.0000 0.96361  0.32820  0.87078  Biso   1.000  O
  O21      1.0000 0.76794  0.11856  0.48234  Biso   1.000  O
  O22      1.0000 0.77234  0.13692  0.98022  Biso   1.000  O
  O23      1.0000 0.72800  0.38709  0.99159  Biso   1.000  O
  O24      1.0000 0.72592  0.37334  0.49534  Biso   1.000  O
  Zr13     1.0000 0.63442  0.51886  0.25128  Biso   1.000  Zr
  Zr14     1.0000 0.63885  0.73636  0.74930  Biso   1.000  Zr
  Zr15     1.0000 0.87046  0.76872  0.24279  Biso   1.000  Zr
  Zr16     1.0000 0.87025  0.98868  0.73718  Biso   1.000  Zr
  O25      1.0000 0.53772  0.68433  0.39319  Biso   1.000  O
  O26      1.0000 0.53530  0.56915  0.89422  Biso   1.000  O
  O27      1.0000 0.96880  0.93897  0.37845  Biso   1.000  O
  O28      1.0000 0.96702  0.81699  0.88013  Biso   1.000  O
  O29      1.0000 0.77072  0.62144  0.49167  Biso   1.000  O
  O30      1.0000 0.77121  0.63594  0.99423  Biso   1.000  O
  O31      1.0000 0.73582  0.88572  0.99197  Biso   1.000  O
  O32      1.0000 0.73456  0.86908  0.49100  Biso   1.000  O
  N1       1.0000 0.04805  0.18631  0.23773  Biso   1.000  N
