data_image0
_cell_length_a       10.253
_cell_length_b       10.3373
_cell_length_c       10.5069
_cell_angle_alpha    89.9974
_cell_angle_beta     80.051
_cell_angle_gamma    90.0444

_symmetry_space_group_name_H-M    "P 1"
_symmetry_int_tables_number       1

loop_
  _symmetry_equiv_pos_as_xyz
  'x, y, z'

loop_
  _atom_site_label
  _atom_site_occupancy
  _atom_site_fract_x
  _atom_site_fract_y
  _atom_site_fract_z
  _atom_site_thermal_displace_type
  _atom_site_B_iso_or_equiv
  _atom_site_type_symbol
  Na1      1.0000 0.14098  0.01436  0.14658  Biso   1.000  Na
  Zr1      1.0000 0.13982  0.02069  0.64536  Biso   1.000  Zr
  Zr2      1.0000 0.14033  0.52075  0.14423  Biso   1.000  Zr
  Zr3      1.0000 0.14021  0.52137  0.64628  Biso   1.000  Zr
  Zr4      1.0000 0.63984  0.02063  0.14586  Biso   1.000  Zr
  Zr5      1.0000 0.63917  0.02091  0.64553  Biso   1.000  Zr
  Zr6      1.0000 0.63751  0.51965  0.14500  Biso   1.000  Zr
  Zr7      1.0000 0.63866  0.52130  0.64516  Biso   1.000  Zr
  Zr8      1.0000 0.14150  0.22755  0.39349  Biso   1.000  Zr
  Zr9      1.0000 0.13978  0.22655  0.89987  Biso   1.000  Zr
  Zr10     1.0000 0.14174  0.72820  0.39372  Biso   1.000  Zr
  Zr11     1.0000 0.14213  0.73192  0.89614  Biso   1.000  Zr
  Zr12     1.0000 0.63800  0.22855  0.39533  Biso   1.000  Zr
  Zr13     1.0000 0.63904  0.22923  0.89584  Biso   1.000  Zr
  Zr14     1.0000 0.63739  0.72920  0.39537  Biso   1.000  Zr
  Zr15     1.0000 0.63965  0.72873  0.89571  Biso   1.000  Zr
  Zr16     1.0000 0.35602  0.26460  0.10541  Biso   1.000  Zr
  Zr17     1.0000 0.35938  0.27031  0.60528  Biso   1.000  Zr
  Zr18     1.0000 0.35872  0.77336  0.10401  Biso   1.000  Zr
  Zr19     1.0000 0.36059  0.77265  0.60394  Biso   1.000  Zr
  Zr20     1.0000 0.86148  0.26967  0.10316  Biso   1.000  Zr
  Zr21     1.0000 0.85946  0.27137  0.60336  Biso   1.000  Zr
  Zr22     1.0000 0.86005  0.77134  0.10474  Biso   1.000  Zr
  Zr23     1.0000 0.86121  0.77080  0.60346  Biso   1.000  Zr
  Zr24     1.0000 0.35983  0.47747  0.35303  Biso   1.000  Zr
  Zr25     1.0000 0.36056  0.47761  0.85519  Biso   1.000  Zr
  Zr26     1.0000 0.35677  0.97984  0.35172  Biso   1.000  Zr
  Zr27     1.0000 0.35895  0.98001  0.85724  Biso   1.000  Zr
  Zr28     1.0000 0.85985  0.47942  0.35383  Biso   1.000  Zr
  Zr29     1.0000 0.86082  0.47928  0.85412  Biso   1.000  Zr
  Zr30     1.0000 0.86332  0.97928  0.35266  Biso   1.000  Zr
  Zr31     1.0000 0.86028  0.97853  0.85449  Biso   1.000  Zr
  O1       1.0000 0.03446  0.18038  0.07982  Biso   1.000  O
  O2       1.0000 0.03387  0.17003  0.58272  Biso   1.000  O
  O3       1.0000 0.03477  0.66861  0.07963  Biso   1.000  O
  O4       1.0000 0.03445  0.66682  0.58045  Biso   1.000  O
  O5       1.0000 0.53522  0.16696  0.07899  Biso   1.000  O
  O6       1.0000 0.53276  0.16663  0.58014  Biso   1.000  O
  O7       1.0000 0.53298  0.66498  0.07794  Biso   1.000  O
  O8       1.0000 0.53333  0.66683  0.57946  Biso   1.000  O
  O9       1.0000 0.02862  0.08420  0.34885  Biso   1.000  O
  O10      1.0000 0.03306  0.08264  0.82967  Biso   1.000  O
  O11      1.0000 0.03330  0.58343  0.32857  Biso   1.000  O
  O12      1.0000 0.03460  0.58183  0.82995  Biso   1.000  O
  O13      1.0000 0.53444  0.08233  0.32967  Biso   1.000  O
  O14      1.0000 0.53620  0.08310  0.82882  Biso   1.000  O
  O15      1.0000 0.53259  0.58266  0.32870  Biso   1.000  O
  O16      1.0000 0.53313  0.58459  0.82796  Biso   1.000  O
  O17      1.0000 0.46565  0.41363  0.17138  Biso   1.000  O
  O18      1.0000 0.46612  0.41633  0.67104  Biso   1.000  O
  O19      1.0000 0.46855  0.91661  0.17018  Biso   1.000  O
  O20      1.0000 0.46651  0.91603  0.67247  Biso   1.000  O
  O21      1.0000 0.96355  0.42092  0.16851  Biso   1.000  O
  O22      1.0000 0.96612  0.41771  0.66909  Biso   1.000  O
  O23      1.0000 0.94924  0.91847  0.17181  Biso   1.000  O
  O24      1.0000 0.96537  0.91799  0.66936  Biso   1.000  O
  O25      1.0000 0.46517  0.33266  0.42168  Biso   1.000  O
  O26      1.0000 0.46863  0.33593  0.92138  Biso   1.000  O
  O27      1.0000 0.46591  0.83413  0.42229  Biso   1.000  O
  O28      1.0000 0.47356  0.83850  0.92246  Biso   1.000  O
  O29      1.0000 0.96562  0.33487  0.42006  Biso   1.000  O
  O30      1.0000 0.96512  0.33321  0.91695  Biso   1.000  O
  O31      1.0000 0.96656  0.83053  0.41960  Biso   1.000  O
  O32      1.0000 0.96539  0.83130  0.91819  Biso   1.000  O
  O33      1.0000 0.28532  0.13485  0.25030  Biso   1.000  O
  O34      1.0000 0.27425  0.12734  0.73992  Biso   1.000  O
  O35      1.0000 0.27575  0.62390  0.23905  Biso   1.000  O
  O36      1.0000 0.27575  0.62959  0.74077  Biso   1.000  O
  O37      1.0000 0.77416  0.12914  0.24134  Biso   1.000  O
  O38      1.0000 0.77608  0.12862  0.74010  Biso   1.000  O
  O39      1.0000 0.77381  0.62825  0.24036  Biso   1.000  O
  O40      1.0000 0.77528  0.62828  0.73938  Biso   1.000  O
  O41      1.0000 0.27422  0.12083  0.49423  Biso   1.000  O
  O42      1.0000 0.28713  0.12948  0.98117  Biso   1.000  O
  O43      1.0000 0.27577  0.62113  0.49040  Biso   1.000  O
  O44      1.0000 0.27596  0.61893  0.99041  Biso   1.000  O
  O45      1.0000 0.77270  0.12288  0.49145  Biso   1.000  O
  O46      1.0000 0.77564  0.12129  0.99011  Biso   1.000  O
  O47      1.0000 0.77455  0.62167  0.49025  Biso   1.000  O
  O48      1.0000 0.77405  0.62010  0.98965  Biso   1.000  O
  O49      1.0000 0.22464  0.37898  0.00910  Biso   1.000  O
  O50      1.0000 0.22461  0.37867  0.50955  Biso   1.000  O
  O51      1.0000 0.23400  0.86942  0.99925  Biso   1.000  O
  O52      1.0000 0.22376  0.87830  0.50988  Biso   1.000  O
  O53      1.0000 0.72422  0.37873  0.00835  Biso   1.000  O
  O54      1.0000 0.72365  0.37922  0.50906  Biso   1.000  O
  O55      1.0000 0.72518  0.87827  0.00860  Biso   1.000  O
  O56      1.0000 0.72579  0.87856  0.50910  Biso   1.000  O
  O57      1.0000 0.22141  0.37263  0.25820  Biso   1.000  O
  O58      1.0000 0.22511  0.37121  0.75984  Biso   1.000  O
  O59      1.0000 0.23421  0.86184  0.26328  Biso   1.000  O
  O60      1.0000 0.22385  0.87282  0.75647  Biso   1.000  O
  O61      1.0000 0.72388  0.37172  0.25997  Biso   1.000  O
  O62      1.0000 0.72495  0.37166  0.75809  Biso   1.000  O
  O63      1.0000 0.71658  0.87058  0.26102  Biso   1.000  O
  O64      1.0000 0.72585  0.87112  0.75846  Biso   1.000  O
