data_image0
_cell_length_a       10.1021
_cell_length_b       5.18273
_cell_length_c       10.5368
_cell_angle_alpha    89.6417
_cell_angle_beta     90.0939
_cell_angle_gamma    90.1229

_symmetry_space_group_name_H-M    "P 1"
_symmetry_int_tables_number       1

loop_
  _symmetry_equiv_pos_as_xyz
  'x, y, z'

loop_
  _atom_site_label
  _atom_site_occupancy
  _atom_site_fract_x
  _atom_site_fract_y
  _atom_site_fract_z
  _atom_site_thermal_displace_type
  _atom_site_B_iso_or_equiv
  _atom_site_type_symbol
  Zr1      1.0000 0.13806  0.04181  0.17144  Biso   1.000  Zr
  Zr2      1.0000 0.13862  0.45603  0.42305  Biso   1.000  Zr
  Zr3      1.0000 0.35441  0.54529  0.17511  Biso   1.000  Zr
  Zr4      1.0000 0.36281  0.95725  0.42219  Biso   1.000  Zr
  Zr5      1.0000 0.64500  0.06556  0.07731  Biso   1.000  Zr
  Zr6      1.0000 0.64124  0.46126  0.33415  Biso   1.000  Zr
  Zr7      1.0000 0.86144  0.54091  0.08123  Biso   1.000  Zr
  Zr8      1.0000 0.86293  0.95850  0.33225  Biso   1.000  Zr
  O1       1.0000 0.03390  0.32847  0.08406  Biso   1.000  O
  O2       1.0000 0.03388  0.16919  0.33437  Biso   1.000  O
  O3       1.0000 0.46348  0.85008  0.09056  Biso   1.000  O
  O4       1.0000 0.46722  0.66701  0.33518  Biso   1.000  O
  O5       1.0000 0.27486  0.24974  0.29599  Biso   1.000  O
  O6       1.0000 0.27634  0.25061  0.04446  Biso   1.000  O
  O7       1.0000 0.22346  0.75049  0.29718  Biso   1.000  O
  O8       1.0000 0.22336  0.74995  0.04528  Biso   1.000  O
  O9       1.0000 0.52671  0.32460  0.17127  Biso   1.000  O
  O10      1.0000 0.53449  0.16808  0.41683  Biso   1.000  O
  O11      1.0000 0.96801  0.82968  0.16900  Biso   1.000  O
  O12      1.0000 0.96774  0.66672  0.41869  Biso   1.000  O
  O13      1.0000 0.77629  0.24804  0.45785  Biso   1.000  O
  O14      1.0000 0.77831  0.25772  0.21118  Biso   1.000  O
  O15      1.0000 0.72512  0.74666  0.45904  Biso   1.000  O
  O16      1.0000 0.72681  0.76471  0.21093  Biso   1.000  O
  Zr9      1.0000 0.14088  0.03889  0.67136  Biso   1.000  Zr
  Zr10     1.0000 0.13914  0.45455  0.92159  Biso   1.000  Zr
  Zr11     1.0000 0.36236  0.53940  0.67176  Biso   1.000  Zr
  Zr12     1.0000 0.36142  0.95616  0.92019  Biso   1.000  Zr
  Zr13     1.0000 0.64000  0.03970  0.58093  Biso   1.000  Zr
  Zr14     1.0000 0.63932  0.44876  0.82779  Biso   1.000  Zr
  Zr15     1.0000 0.86286  0.53919  0.58155  Biso   1.000  Zr
  Zr16     1.0000 0.86449  0.95297  0.82902  Biso   1.000  Zr
  O17      1.0000 0.03399  0.32792  0.58468  Biso   1.000  O
  O18      1.0000 0.03519  0.16647  0.83249  Biso   1.000  O
  O19      1.0000 0.46809  0.83066  0.58476  Biso   1.000  O
  O20      1.0000 0.46593  0.65951  0.83456  Biso   1.000  O
  O21      1.0000 0.27737  0.24465  0.79509  Biso   1.000  O
  O22      1.0000 0.27658  0.24848  0.54522  Biso   1.000  O
  O23      1.0000 0.22500  0.74529  0.79538  Biso   1.000  O
  O24      1.0000 0.22607  0.74860  0.54566  Biso   1.000  O
  O25      1.0000 0.53367  0.33029  0.66452  Biso   1.000  O
  O26      1.0000 0.53844  0.14245  0.90807  Biso   1.000  O
  O27      1.0000 0.96979  0.82778  0.66655  Biso   1.000  O
  O28      1.0000 0.96798  0.66781  0.91821  Biso   1.000  O
  O29      1.0000 0.78827  0.23660  0.95178  Biso   1.000  O
  O30      1.0000 0.77737  0.24506  0.70462  Biso   1.000  O
  O31      1.0000 0.72057  0.73992  0.95990  Biso   1.000  O
  O32      1.0000 0.72670  0.74683  0.70753  Biso   1.000  O
  Ni1      1.0000 0.59280  0.57408  0.06350  Biso   1.000  Ni
