data_image0
_cell_length_a       10.0149
_cell_length_b       5.19157
_cell_length_c       10.04
_cell_angle_alpha    89.7148
_cell_angle_beta     89.8633
_cell_angle_gamma    90.0564

_symmetry_space_group_name_H-M    "P 1"
_symmetry_int_tables_number       1

loop_
  _symmetry_equiv_pos_as_xyz
  'x, y, z'

loop_
  _atom_site_label
  _atom_site_occupancy
  _atom_site_fract_x
  _atom_site_fract_y
  _atom_site_fract_z
  _atom_site_thermal_displace_type
  _atom_site_B_iso_or_equiv
  _atom_site_type_symbol
  Os1      1.0000 0.13870  0.04082  0.12101  Biso   1.000  Os
  Zr1      1.0000 0.13378  0.03114  0.62655  Biso   1.000  Zr
  Zr2      1.0000 0.63488  0.03277  0.12499  Biso   1.000  Zr
  Zr3      1.0000 0.63382  0.03145  0.62335  Biso   1.000  Zr
  Zr4      1.0000 0.13161  0.46952  0.37342  Biso   1.000  Zr
  Zr5      1.0000 0.13409  0.46671  0.87852  Biso   1.000  Zr
  Zr6      1.0000 0.63460  0.47203  0.37358  Biso   1.000  Zr
  Zr7      1.0000 0.63310  0.46699  0.87491  Biso   1.000  Zr
  Zr8      1.0000 0.36471  0.53854  0.12640  Biso   1.000  Zr
  Zr9      1.0000 0.36629  0.53195  0.62474  Biso   1.000  Zr
  Zr10     1.0000 0.87125  0.53085  0.12405  Biso   1.000  Zr
  Zr11     1.0000 0.86611  0.53028  0.62572  Biso   1.000  Zr
  Zr12     1.0000 0.36490  0.97165  0.37462  Biso   1.000  Zr
  Zr13     1.0000 0.36524  0.96594  0.87620  Biso   1.000  Zr
  Zr14     1.0000 0.87073  0.97288  0.37148  Biso   1.000  Zr
  Zr15     1.0000 0.86616  0.96801  0.87584  Biso   1.000  Zr
  O1       1.0000 0.03477  0.34719  0.19839  Biso   1.000  O
  O2       1.0000 0.03157  0.35858  0.70443  Biso   1.000  O
  O3       1.0000 0.53448  0.36838  0.19346  Biso   1.000  O
  O4       1.0000 0.53585  0.36916  0.69318  Biso   1.000  O
  O5       1.0000 0.03253  0.14007  0.45248  Biso   1.000  O
  O6       1.0000 0.03450  0.12923  0.96341  Biso   1.000  O
  O7       1.0000 0.53471  0.13619  0.44348  Biso   1.000  O
  O8       1.0000 0.53609  0.12819  0.94258  Biso   1.000  O
  O9       1.0000 0.46562  0.86692  0.19505  Biso   1.000  O
  O10      1.0000 0.46346  0.86839  0.69351  Biso   1.000  O
  O11      1.0000 0.97580  0.85841  0.19330  Biso   1.000  O
  O12      1.0000 0.96593  0.86349  0.69780  Biso   1.000  O
  O13      1.0000 0.46358  0.63518  0.44233  Biso   1.000  O
  O14      1.0000 0.45928  0.62644  0.94350  Biso   1.000  O
  O15      1.0000 0.96649  0.63666  0.44758  Biso   1.000  O
  O16      1.0000 0.96266  0.62884  0.94203  Biso   1.000  O
  O17      1.0000 0.26644  0.23642  0.24455  Biso   1.000  O
  O18      1.0000 0.26936  0.23414  0.74959  Biso   1.000  O
  O19      1.0000 0.76862  0.23521  0.24802  Biso   1.000  O
  O20      1.0000 0.76821  0.23209  0.74853  Biso   1.000  O
  O21      1.0000 0.26891  0.26860  0.49686  Biso   1.000  O
  O22      1.0000 0.27094  0.25411  0.00125  Biso   1.000  O
  O23      1.0000 0.76932  0.26956  0.49757  Biso   1.000  O
  O24      1.0000 0.76957  0.26579  0.99790  Biso   1.000  O
  O25      1.0000 0.23046  0.76783  0.49923  Biso   1.000  O
  O26      1.0000 0.22334  0.76374  0.00262  Biso   1.000  O
  O27      1.0000 0.73179  0.76985  0.49631  Biso   1.000  O
  O28      1.0000 0.72938  0.76486  0.99714  Biso   1.000  O
  O29      1.0000 0.22620  0.74955  0.24712  Biso   1.000  O
  O30      1.0000 0.23027  0.73088  0.75081  Biso   1.000  O
  O31      1.0000 0.73596  0.73589  0.24627  Biso   1.000  O
  O32      1.0000 0.73040  0.73363  0.74784  Biso   1.000  O
