data_image0
_cell_length_a       10.0684
_cell_length_b       5.12657
_cell_length_c       10.5123
_cell_angle_alpha    89.8491
_cell_angle_beta     89.8155
_cell_angle_gamma    90.0034

_symmetry_space_group_name_H-M    "P 1"
_symmetry_int_tables_number       1

loop_
  _symmetry_equiv_pos_as_xyz
  'x, y, z'

loop_
  _atom_site_label
  _atom_site_occupancy
  _atom_site_fract_x
  _atom_site_fract_y
  _atom_site_fract_z
  _atom_site_thermal_displace_type
  _atom_site_B_iso_or_equiv
  _atom_site_type_symbol
  Os1      1.0000 0.14122  0.04249  0.17704  Biso   1.000  Os
  Zr1      1.0000 0.13864  0.04189  0.67186  Biso   1.000  Zr
  Zr2      1.0000 0.13877  0.46064  0.42006  Biso   1.000  Zr
  Zr3      1.0000 0.13754  0.45262  0.92399  Biso   1.000  Zr
  Zr4      1.0000 0.35660  0.54779  0.17176  Biso   1.000  Zr
  Zr5      1.0000 0.36128  0.54253  0.67229  Biso   1.000  Zr
  Zr6      1.0000 0.36090  0.95915  0.42191  Biso   1.000  Zr
  Zr7      1.0000 0.35997  0.95448  0.92296  Biso   1.000  Zr
  Zr8      1.0000 0.63822  0.04431  0.07826  Biso   1.000  Zr
  Zr9      1.0000 0.63878  0.04308  0.57906  Biso   1.000  Zr
  Zr10     1.0000 0.63750  0.45845  0.32730  Biso   1.000  Zr
  Zr11     1.0000 0.63917  0.45910  0.82997  Biso   1.000  Zr
  Zr12     1.0000 0.86782  0.53967  0.07984  Biso   1.000  Zr
  Zr13     1.0000 0.86087  0.54287  0.57756  Biso   1.000  Zr
  Zr14     1.0000 0.86123  0.96111  0.32672  Biso   1.000  Zr
  Zr15     1.0000 0.86093  0.95711  0.82905  Biso   1.000  Zr
  O1       1.0000 0.03201  0.31511  0.08170  Biso   1.000  O
  O2       1.0000 0.02890  0.31618  0.57433  Biso   1.000  O
  O3       1.0000 0.03614  0.17712  0.32150  Biso   1.000  O
  O4       1.0000 0.02941  0.17812  0.82740  Biso   1.000  O
  O5       1.0000 0.46888  0.82378  0.08181  Biso   1.000  O
  O6       1.0000 0.46787  0.82879  0.58336  Biso   1.000  O
  O7       1.0000 0.46525  0.67294  0.33228  Biso   1.000  O
  O8       1.0000 0.46766  0.67262  0.83330  Biso   1.000  O
  O9       1.0000 0.27652  0.24429  0.29548  Biso   1.000  O
  O10      1.0000 0.27569  0.24746  0.79849  Biso   1.000  O
  O11      1.0000 0.27056  0.24025  0.05371  Biso   1.000  O
  O12      1.0000 0.27576  0.25332  0.54617  Biso   1.000  O
  O13      1.0000 0.21928  0.75409  0.29280  Biso   1.000  O
  O14      1.0000 0.22421  0.74739  0.79496  Biso   1.000  O
  O15      1.0000 0.22054  0.75329  0.04550  Biso   1.000  O
  O16      1.0000 0.22430  0.75068  0.54444  Biso   1.000  O
  O17      1.0000 0.53054  0.32945  0.16823  Biso   1.000  O
  O18      1.0000 0.53222  0.32811  0.66869  Biso   1.000  O
  O19      1.0000 0.53193  0.17374  0.41849  Biso   1.000  O
  O20      1.0000 0.52992  0.17554  0.91951  Biso   1.000  O
  O21      1.0000 0.97874  0.83550  0.16609  Biso   1.000  O
  O22      1.0000 0.96971  0.81962  0.66943  Biso   1.000  O
  O23      1.0000 0.96878  0.67866  0.41737  Biso   1.000  O
  O24      1.0000 0.96931  0.67150  0.91917  Biso   1.000  O
  O25      1.0000 0.77535  0.25077  0.95499  Biso   1.000  O
  O26      1.0000 0.77667  0.24783  0.45288  Biso   1.000  O
  O27      1.0000 0.77462  0.25215  0.20457  Biso   1.000  O
  O28      1.0000 0.77579  0.25159  0.70449  Biso   1.000  O
  O29      1.0000 0.72497  0.74960  0.95515  Biso   1.000  O
  O30      1.0000 0.72375  0.74808  0.45437  Biso   1.000  O
  O31      1.0000 0.73092  0.75252  0.20487  Biso   1.000  O
  O32      1.0000 0.72438  0.75259  0.70483  Biso   1.000  O
