data_image0
_cell_length_a       10.0721
_cell_length_b       10.4882
_cell_length_c       10.1076
_cell_angle_alpha    89.7807
_cell_angle_beta     90.1289
_cell_angle_gamma    90.1363

_symmetry_space_group_name_H-M    "P 1"
_symmetry_int_tables_number       1

loop_
  _symmetry_equiv_pos_as_xyz
  'x, y, z'

loop_
  _atom_site_label
  _atom_site_occupancy
  _atom_site_fract_x
  _atom_site_fract_y
  _atom_site_fract_z
  _atom_site_thermal_displace_type
  _atom_site_B_iso_or_equiv
  _atom_site_type_symbol
  Zr1      1.0000 0.13556  0.02362  0.11872  Biso   1.000  Zr
  Zr2      1.0000 0.13419  0.22979  0.38515  Biso   1.000  Zr
  Zr3      1.0000 0.36628  0.26068  0.11931  Biso   1.000  Zr
  Zr4      1.0000 0.36848  0.48391  0.37380  Biso   1.000  Zr
  O1       1.0000 0.00470  0.17409  0.22718  Biso   1.000  O
  O2       1.0000 0.03520  0.06392  0.45385  Biso   1.000  O
  O3       1.0000 0.46235  0.43232  0.19428  Biso   1.000  O
  O4       1.0000 0.46560  0.31759  0.44669  Biso   1.000  O
  O5       1.0000 0.26581  0.11339  0.25229  Biso   1.000  O
  O6       1.0000 0.27180  0.13187  0.50082  Biso   1.000  O
  O7       1.0000 0.23355  0.38434  0.49965  Biso   1.000  O
  O8       1.0000 0.23054  0.35968  0.25142  Biso   1.000  O
  Zr5      1.0000 0.13507  0.01257  0.62728  Biso   1.000  Zr
  Zr6      1.0000 0.14440  0.22443  0.86903  Biso   1.000  Zr
  Zr7      1.0000 0.36902  0.26595  0.62520  Biso   1.000  Zr
  Zr8      1.0000 0.36857  0.48627  0.87290  Biso   1.000  Zr
  O9       1.0000 0.03591  0.17959  0.69379  Biso   1.000  O
  O10      1.0000 0.03913  0.06106  0.93851  Biso   1.000  O
  O11      1.0000 0.46854  0.43285  0.69639  Biso   1.000  O
  O12      1.0000 0.46512  0.31582  0.94064  Biso   1.000  O
  O13      1.0000 0.27354  0.11271  0.74497  Biso   1.000  O
  O14      1.0000 0.29160  0.12022  0.98841  Biso   1.000  O
  O15      1.0000 0.23192  0.39336  0.99861  Biso   1.000  O
  O16      1.0000 0.23497  0.36488  0.74789  Biso   1.000  O
  Zr9      1.0000 0.13137  0.54055  0.12131  Biso   1.000  Zr
  Zr10     1.0000 0.13539  0.73755  0.37870  Biso   1.000  Zr
  Zr11     1.0000 0.36514  0.76864  0.12696  Biso   1.000  Zr
  Zr12     1.0000 0.36507  0.98410  0.37565  Biso   1.000  Zr
  O17      1.0000 0.03161  0.69183  0.20181  Biso   1.000  O
  O18      1.0000 0.03401  0.56937  0.44731  Biso   1.000  O
  O19      1.0000 0.46418  0.93266  0.19641  Biso   1.000  O
  O20      1.0000 0.46567  0.81519  0.44372  Biso   1.000  O
  O21      1.0000 0.27141  0.62137  0.24986  Biso   1.000  O
  O22      1.0000 0.27012  0.63253  0.49832  Biso   1.000  O
  O23      1.0000 0.23256  0.88271  0.49987  Biso   1.000  O
  O24      1.0000 0.23056  0.86780  0.24966  Biso   1.000  O
  Zr13     1.0000 0.13381  0.51386  0.62493  Biso   1.000  Zr
  Zr14     1.0000 0.13252  0.73890  0.87084  Biso   1.000  Zr
  Zr15     1.0000 0.37004  0.76261  0.62292  Biso   1.000  Zr
  Zr16     1.0000 0.37158  0.97767  0.87287  Biso   1.000  Zr
  O25      1.0000 0.03653  0.68281  0.69191  Biso   1.000  O
  O26      1.0000 0.03237  0.57209  0.94447  Biso   1.000  O
  O27      1.0000 0.47023  0.92944  0.69198  Biso   1.000  O
  O28      1.0000 0.47004  0.81639  0.94887  Biso   1.000  O
  O29      1.0000 0.26896  0.61429  0.74728  Biso   1.000  O
  O30      1.0000 0.26970  0.64151  0.99476  Biso   1.000  O
  O31      1.0000 0.23047  0.88330  0.99868  Biso   1.000  O
  O32      1.0000 0.23653  0.86347  0.74712  Biso   1.000  O
  Zr17     1.0000 0.62983  0.01218  0.12273  Biso   1.000  Zr
  Zr18     1.0000 0.63020  0.23127  0.37734  Biso   1.000  Zr
  Zr19     1.0000 0.84396  0.26229  0.12784  Biso   1.000  Zr
  Zr20     1.0000 0.86657  0.48556  0.37720  Biso   1.000  Zr
  O33      1.0000 0.53099  0.17891  0.19663  Biso   1.000  O
  O34      1.0000 0.53403  0.06559  0.44718  Biso   1.000  O
  O35      1.0000 0.95748  0.44293  0.19626  Biso   1.000  O
  O36      1.0000 0.96985  0.32206  0.45254  Biso   1.000  O
  O37      1.0000 0.75705  0.11257  0.24950  Biso   1.000  O
  O38      1.0000 0.77131  0.13484  0.49696  Biso   1.000  O
  O39      1.0000 0.73224  0.38317  0.50090  Biso   1.000  O
  O40      1.0000 0.72322  0.36816  0.25297  Biso   1.000  O
  Zr21     1.0000 0.63699  0.01427  0.62368  Biso   1.000  Zr
  Zr22     1.0000 0.63200  0.23198  0.87202  Biso   1.000  Zr
  Zr23     1.0000 0.86831  0.26534  0.62601  Biso   1.000  Zr
  Zr24     1.0000 0.86489  0.48343  0.87757  Biso   1.000  Zr
  O41      1.0000 0.53827  0.18284  0.69198  Biso   1.000  O
  O42      1.0000 0.54202  0.06312  0.93913  Biso   1.000  O
  O43      1.0000 0.96859  0.43097  0.70378  Biso   1.000  O
  O44      1.0000 0.96884  0.31138  0.95342  Biso   1.000  O
  O45      1.0000 0.77179  0.11486  0.74745  Biso   1.000  O
  O46      1.0000 0.76882  0.13093  0.99766  Biso   1.000  O
  O47      1.0000 0.72624  0.38267  0.99934  Biso   1.000  O
  O48      1.0000 0.73445  0.36521  0.75063  Biso   1.000  O
  Zr25     1.0000 0.63081  0.51731  0.12765  Biso   1.000  Zr
  Zr26     1.0000 0.63443  0.73492  0.37481  Biso   1.000  Zr
  Zr27     1.0000 0.86396  0.76808  0.12549  Biso   1.000  Zr
  Zr28     1.0000 0.86948  0.98704  0.37089  Biso   1.000  Zr
  O49      1.0000 0.53402  0.68284  0.19615  Biso   1.000  O
  O50      1.0000 0.53401  0.56628  0.44639  Biso   1.000  O
  O51      1.0000 0.96438  0.93594  0.19101  Biso   1.000  O
  O52      1.0000 0.96601  0.81928  0.44538  Biso   1.000  O
  O53      1.0000 0.76734  0.61763  0.25045  Biso   1.000  O
  O54      1.0000 0.76798  0.63426  0.49975  Biso   1.000  O
  O55      1.0000 0.73376  0.88531  0.49652  Biso   1.000  O
  O56      1.0000 0.73030  0.86611  0.24773  Biso   1.000  O
  Zr29     1.0000 0.63627  0.51433  0.62548  Biso   1.000  Zr
  Zr30     1.0000 0.63582  0.73313  0.87523  Biso   1.000  Zr
  Zr31     1.0000 0.86818  0.76572  0.62350  Biso   1.000  Zr
  Zr32     1.0000 0.86702  0.98216  0.87458  Biso   1.000  Zr
  O57      1.0000 0.53652  0.68079  0.69678  Biso   1.000  O
  O58      1.0000 0.53458  0.56712  0.94621  Biso   1.000  O
  O59      1.0000 0.96913  0.92844  0.69939  Biso   1.000  O
  O60      1.0000 0.96422  0.81503  0.94552  Biso   1.000  O
  O61      1.0000 0.77147  0.61435  0.74996  Biso   1.000  O
  O62      1.0000 0.76874  0.63214  0.99987  Biso   1.000  O
  O63      1.0000 0.73160  0.88182  0.99790  Biso   1.000  O
  O64      1.0000 0.73355  0.86442  0.74759  Biso   1.000  O
  Os1      1.0000 0.09652  0.30313  0.11078  Biso   1.000  Os
