data_image0
_cell_length_a       10.1905
_cell_length_b       10.419
_cell_length_c       10.5008
_cell_angle_alpha    90.187
_cell_angle_beta     80.3819
_cell_angle_gamma    90.2507

_symmetry_space_group_name_H-M    "P 1"
_symmetry_int_tables_number       1

loop_
  _symmetry_equiv_pos_as_xyz
  'x, y, z'

loop_
  _atom_site_label
  _atom_site_occupancy
  _atom_site_fract_x
  _atom_site_fract_y
  _atom_site_fract_z
  _atom_site_thermal_displace_type
  _atom_site_B_iso_or_equiv
  _atom_site_type_symbol
  Zr1      1.0000 0.13730  0.02195  0.14590  Biso   1.000  Zr
  Zr2      1.0000 0.14426  0.22997  0.39450  Biso   1.000  Zr
  Zr3      1.0000 0.35858  0.27324  0.10367  Biso   1.000  Zr
  Zr4      1.0000 0.34992  0.49060  0.34788  Biso   1.000  Zr
  O1       1.0000 0.03483  0.17126  0.08145  Biso   1.000  O
  O2       1.0000 0.03629  0.08007  0.33192  Biso   1.000  O
  O3       1.0000 0.45758  0.43363  0.16037  Biso   1.000  O
  O4       1.0000 0.48544  0.36954  0.43286  Biso   1.000  O
  O5       1.0000 0.27577  0.12394  0.23921  Biso   1.000  O
  O6       1.0000 0.27473  0.11281  0.49470  Biso   1.000  O
  O7       1.0000 0.22212  0.37994  0.00656  Biso   1.000  O
  O8       1.0000 0.20908  0.37662  0.25357  Biso   1.000  O
  Zr5      1.0000 0.13686  0.01885  0.64645  Biso   1.000  Zr
  Zr6      1.0000 0.13628  0.22852  0.89610  Biso   1.000  Zr
  Zr7      1.0000 0.35853  0.27111  0.61048  Biso   1.000  Zr
  Zr8      1.0000 0.36012  0.47815  0.85631  Biso   1.000  Zr
  O9       1.0000 0.04007  0.17169  0.58201  Biso   1.000  O
  O10      1.0000 0.03458  0.07890  0.83156  Biso   1.000  O
  O11      1.0000 0.46504  0.41461  0.67610  Biso   1.000  O
  O12      1.0000 0.46364  0.33007  0.92147  Biso   1.000  O
  O13      1.0000 0.27495  0.13001  0.74197  Biso   1.000  O
  O14      1.0000 0.27406  0.12214  0.99052  Biso   1.000  O
  O15      1.0000 0.22721  0.37954  0.51022  Biso   1.000  O
  O16      1.0000 0.22237  0.37089  0.75959  Biso   1.000  O
  Zr9      1.0000 0.13519  0.52183  0.14207  Biso   1.000  Zr
  Zr10     1.0000 0.13489  0.73110  0.39630  Biso   1.000  Zr
  Zr11     1.0000 0.35964  0.77245  0.10284  Biso   1.000  Zr
  Zr12     1.0000 0.36406  0.97064  0.35746  Biso   1.000  Zr
  O17      1.0000 0.03424  0.67268  0.08019  Biso   1.000  O
  O18      1.0000 0.03434  0.58128  0.33016  Biso   1.000  O
  O19      1.0000 0.46252  0.91905  0.16889  Biso   1.000  O
  O20      1.0000 0.45882  0.81939  0.42012  Biso   1.000  O
  O21      1.0000 0.27112  0.63270  0.23936  Biso   1.000  O
  O22      1.0000 0.26976  0.62210  0.49139  Biso   1.000  O
  O23      1.0000 0.22333  0.88002  0.00945  Biso   1.000  O
  O24      1.0000 0.22313  0.87041  0.26010  Biso   1.000  O
  Zr13     1.0000 0.13694  0.52229  0.64590  Biso   1.000  Zr
  Zr14     1.0000 0.13677  0.72950  0.89538  Biso   1.000  Zr
  Zr15     1.0000 0.36085  0.76896  0.60611  Biso   1.000  Zr
  Zr16     1.0000 0.35971  0.97936  0.85502  Biso   1.000  Zr
  O25      1.0000 0.03197  0.66958  0.58213  Biso   1.000  O
  O26      1.0000 0.03463  0.57989  0.83175  Biso   1.000  O
  O27      1.0000 0.46248  0.92002  0.66800  Biso   1.000  O
  O28      1.0000 0.46285  0.83138  0.91755  Biso   1.000  O
  O29      1.0000 0.27478  0.62787  0.74076  Biso   1.000  O
  O30      1.0000 0.27400  0.62199  0.98990  Biso   1.000  O
  O31      1.0000 0.22254  0.87575  0.51133  Biso   1.000  O
  O32      1.0000 0.22316  0.87092  0.76018  Biso   1.000  O
  Zr17     1.0000 0.63772  0.01821  0.14823  Biso   1.000  Zr
  Zr18     1.0000 0.65378  0.22708  0.39869  Biso   1.000  Zr
  Zr19     1.0000 0.85950  0.27144  0.10492  Biso   1.000  Zr
  Zr20     1.0000 0.86299  0.47767  0.35525  Biso   1.000  Zr
  O33      1.0000 0.53286  0.16605  0.08158  Biso   1.000  O
  O34      1.0000 0.55231  0.04789  0.34113  Biso   1.000  O
  O35      1.0000 0.96018  0.42304  0.16642  Biso   1.000  O
  O36      1.0000 0.96622  0.32883  0.41917  Biso   1.000  O
  O37      1.0000 0.77869  0.12896  0.24148  Biso   1.000  O
  O38      1.0000 0.78055  0.11641  0.49410  Biso   1.000  O
  O39      1.0000 0.72216  0.37901  0.01097  Biso   1.000  O
  O40      1.0000 0.72413  0.37081  0.26051  Biso   1.000  O
  Zr21     1.0000 0.63709  0.02122  0.64460  Biso   1.000  Zr
  Zr22     1.0000 0.63771  0.22779  0.89712  Biso   1.000  Zr
  Zr23     1.0000 0.86541  0.26993  0.60715  Biso   1.000  Zr
  Zr24     1.0000 0.85946  0.47824  0.85627  Biso   1.000  Zr
  O41      1.0000 0.53534  0.17176  0.57724  Biso   1.000  O
  O42      1.0000 0.53375  0.08170  0.82847  Biso   1.000  O
  O43      1.0000 0.96382  0.42038  0.67070  Biso   1.000  O
  O44      1.0000 0.96193  0.32930  0.91871  Biso   1.000  O
  O45      1.0000 0.77469  0.12864  0.74196  Biso   1.000  O
  O46      1.0000 0.77450  0.12117  0.99182  Biso   1.000  O
  O47      1.0000 0.72967  0.37621  0.51248  Biso   1.000  O
  O48      1.0000 0.72420  0.37005  0.76150  Biso   1.000  O
  Zr25     1.0000 0.63785  0.52412  0.14438  Biso   1.000  Zr
  Zr26     1.0000 0.63856  0.72600  0.39507  Biso   1.000  Zr
  Zr27     1.0000 0.85988  0.77071  0.10437  Biso   1.000  Zr
  Zr28     1.0000 0.86164  0.97672  0.35433  Biso   1.000  Zr
  O49      1.0000 0.53533  0.67322  0.07829  Biso   1.000  O
  O50      1.0000 0.53044  0.58735  0.32335  Biso   1.000  O
  O51      1.0000 0.96398  0.91972  0.16923  Biso   1.000  O
  O52      1.0000 0.96142  0.82942  0.42044  Biso   1.000  O
  O53      1.0000 0.77529  0.62714  0.24114  Biso   1.000  O
  O54      1.0000 0.77388  0.61863  0.49087  Biso   1.000  O
  O55      1.0000 0.72314  0.87911  0.00966  Biso   1.000  O
  O56      1.0000 0.72734  0.86576  0.25810  Biso   1.000  O
  Zr29     1.0000 0.63844  0.51916  0.64669  Biso   1.000  Zr
  Zr30     1.0000 0.63689  0.72918  0.89501  Biso   1.000  Zr
  Zr31     1.0000 0.85792  0.77083  0.60570  Biso   1.000  Zr
  Zr32     1.0000 0.85893  0.97890  0.85551  Biso   1.000  Zr
  O57      1.0000 0.53415  0.66524  0.58113  Biso   1.000  O
  O58      1.0000 0.53454  0.58031  0.83094  Biso   1.000  O
  O59      1.0000 0.96135  0.92024  0.66885  Biso   1.000  O
  O60      1.0000 0.96245  0.83028  0.91817  Biso   1.000  O
  O61      1.0000 0.77425  0.62848  0.74109  Biso   1.000  O
  O62      1.0000 0.77424  0.62131  0.99050  Biso   1.000  O
  O63      1.0000 0.72157  0.87707  0.50978  Biso   1.000  O
  O64      1.0000 0.72163  0.87152  0.75936  Biso   1.000  O
  P1       1.0000 0.43581  0.25917  0.33397  Biso   1.000  P
