data_image0
_cell_length_a       10.1115
_cell_length_b       5.04121
_cell_length_c       10.1117
_cell_angle_alpha    89.9988
_cell_angle_beta     89.9983
_cell_angle_gamma    89.9991

_symmetry_space_group_name_H-M    "P 1"
_symmetry_int_tables_number       1

loop_
  _symmetry_equiv_pos_as_xyz
  'x, y, z'

loop_
  _atom_site_label
  _atom_site_occupancy
  _atom_site_fract_x
  _atom_site_fract_y
  _atom_site_fract_z
  _atom_site_thermal_displace_type
  _atom_site_B_iso_or_equiv
  _atom_site_type_symbol
  P1       1.0000 0.12501  0.00218  0.12501  Biso   1.000  P
  Zr1      1.0000 0.12499  0.00218  0.62502  Biso   1.000  Zr
  Zr2      1.0000 0.62502  0.00218  0.12499  Biso   1.000  Zr
  Zr3      1.0000 0.62501  0.00218  0.62501  Biso   1.000  Zr
  Zr4      1.0000 0.12501  0.50218  0.38152  Biso   1.000  Zr
  Zr5      1.0000 0.12501  0.50219  0.86851  Biso   1.000  Zr
  Zr6      1.0000 0.62499  0.50221  0.37912  Biso   1.000  Zr
  Zr7      1.0000 0.62499  0.50216  0.87088  Biso   1.000  Zr
  Zr8      1.0000 0.38151  0.50218  0.12501  Biso   1.000  Zr
  Zr9      1.0000 0.37917  0.50220  0.62499  Biso   1.000  Zr
  Zr10     1.0000 0.86851  0.50219  0.12501  Biso   1.000  Zr
  Zr11     1.0000 0.87083  0.50216  0.62499  Biso   1.000  Zr
  Zr12     1.0000 0.37348  0.02539  0.37353  Biso   1.000  Zr
  Zr13     1.0000 0.37347  0.97899  0.87649  Biso   1.000  Zr
  Zr14     1.0000 0.87654  0.97899  0.37351  Biso   1.000  Zr
  Zr15     1.0000 0.87654  0.02540  0.87649  Biso   1.000  Zr
  O1       1.0000 0.97032  0.33600  0.97031  Biso   1.000  O
  O2       1.0000 0.99445  0.24341  0.47383  Biso   1.000  O
  O3       1.0000 0.47387  0.24356  0.99429  Biso   1.000  O
  O4       1.0000 0.49250  0.24795  0.49235  Biso   1.000  O
  O5       1.0000 0.03529  0.17837  0.21469  Biso   1.000  O
  O6       1.0000 0.00778  0.26196  0.72670  Biso   1.000  O
  O7       1.0000 0.52325  0.26189  0.24209  Biso   1.000  O
  O8       1.0000 0.50903  0.25990  0.74084  Biso   1.000  O
  O9       1.0000 0.97033  0.66836  0.27971  Biso   1.000  O
  O10      1.0000 0.99446  0.76100  0.77619  Biso   1.000  O
  O11      1.0000 0.47388  0.76079  0.25572  Biso   1.000  O
  O12      1.0000 0.49249  0.75645  0.75766  Biso   1.000  O
  O13      1.0000 0.03530  0.82598  0.03534  Biso   1.000  O
  O14      1.0000 0.00778  0.74245  0.52332  Biso   1.000  O
  O15      1.0000 0.52325  0.74246  0.00792  Biso   1.000  O
  O16      1.0000 0.50903  0.74453  0.50917  Biso   1.000  O
  O17      1.0000 0.27969  0.33602  0.27971  Biso   1.000  O
  O18      1.0000 0.25555  0.24341  0.77618  Biso   1.000  O
  O19      1.0000 0.77614  0.24357  0.25571  Biso   1.000  O
  O20      1.0000 0.75751  0.24790  0.75766  Biso   1.000  O
  O21      1.0000 0.21472  0.17837  0.03532  Biso   1.000  O
  O22      1.0000 0.24223  0.26190  0.52331  Biso   1.000  O
  O23      1.0000 0.72676  0.26195  0.00792  Biso   1.000  O
  O24      1.0000 0.74097  0.25990  0.50917  Biso   1.000  O
  O25      1.0000 0.27970  0.66836  0.97032  Biso   1.000  O
  O26      1.0000 0.25556  0.76095  0.47384  Biso   1.000  O
  O27      1.0000 0.77615  0.76084  0.99430  Biso   1.000  O
  O28      1.0000 0.75751  0.75646  0.49234  Biso   1.000  O
  O29      1.0000 0.21473  0.82602  0.21470  Biso   1.000  O
  O30      1.0000 0.24223  0.74246  0.72671  Biso   1.000  O
  O31      1.0000 0.72677  0.74246  0.24209  Biso   1.000  O
  O32      1.0000 0.74097  0.74444  0.74084  Biso   1.000  O
