data_image0
_cell_length_a       10.1927
_cell_length_b       10.2817
_cell_length_c       5.26348
_cell_angle_alpha    89.9836
_cell_angle_beta     80.6106
_cell_angle_gamma    89.4394

_symmetry_space_group_name_H-M    "P 1"
_symmetry_int_tables_number       1

loop_
  _symmetry_equiv_pos_as_xyz
  'x, y, z'

loop_
  _atom_site_label
  _atom_site_occupancy
  _atom_site_fract_x
  _atom_site_fract_y
  _atom_site_fract_z
  _atom_site_thermal_displace_type
  _atom_site_B_iso_or_equiv
  _atom_site_type_symbol
  P1       1.0000 0.08684  0.02772  0.32778  Biso   1.000  P
  Zr1      1.0000 0.14100  0.52282  0.29143  Biso   1.000  Zr
  Zr2      1.0000 0.63577  0.02154  0.29639  Biso   1.000  Zr
  Zr3      1.0000 0.63529  0.52132  0.29167  Biso   1.000  Zr
  Zr4      1.0000 0.15155  0.22833  0.78268  Biso   1.000  Zr
  Zr5      1.0000 0.14248  0.73392  0.78761  Biso   1.000  Zr
  Zr6      1.0000 0.63735  0.22950  0.79157  Biso   1.000  Zr
  Zr7      1.0000 0.63498  0.72775  0.79435  Biso   1.000  Zr
  Zr8      1.0000 0.35852  0.26679  0.20867  Biso   1.000  Zr
  Zr9      1.0000 0.35551  0.77981  0.20661  Biso   1.000  Zr
  Zr10     1.0000 0.85995  0.27091  0.21384  Biso   1.000  Zr
  Zr11     1.0000 0.86007  0.76496  0.20614  Biso   1.000  Zr
  Zr12     1.0000 0.36179  0.47999  0.70842  Biso   1.000  Zr
  Zr13     1.0000 0.35531  0.98109  0.70608  Biso   1.000  Zr
  Zr14     1.0000 0.86653  0.47552  0.71121  Biso   1.000  Zr
  Zr15     1.0000 0.85171  0.97688  0.72258  Biso   1.000  Zr
  O1       1.0000 0.03924  0.14034  0.15004  Biso   1.000  O
  O2       1.0000 0.03378  0.66809  0.15984  Biso   1.000  O
  O3       1.0000 0.53764  0.16913  0.15847  Biso   1.000  O
  O4       1.0000 0.53303  0.66686  0.15423  Biso   1.000  O
  O5       1.0000 0.03393  0.08499  0.61615  Biso   1.000  O
  O6       1.0000 0.03474  0.58274  0.65778  Biso   1.000  O
  O7       1.0000 0.53852  0.08202  0.65908  Biso   1.000  O
  O8       1.0000 0.53384  0.58439  0.65393  Biso   1.000  O
  O9       1.0000 0.46580  0.41539  0.34507  Biso   1.000  O
  O10      1.0000 0.46761  0.91615  0.34714  Biso   1.000  O
  O11      1.0000 0.97194  0.40714  0.35145  Biso   1.000  O
  O12      1.0000 0.96942  0.92437  0.34043  Biso   1.000  O
  O13      1.0000 0.46965  0.33834  0.84661  Biso   1.000  O
  O14      1.0000 0.46876  0.83812  0.84650  Biso   1.000  O
  O15      1.0000 0.96958  0.32663  0.85692  Biso   1.000  O
  O16      1.0000 0.96427  0.83615  0.84456  Biso   1.000  O
  O17      1.0000 0.27480  0.13106  0.47811  Biso   1.000  O
  O18      1.0000 0.27568  0.62957  0.47781  Biso   1.000  O
  O19      1.0000 0.77868  0.12736  0.48163  Biso   1.000  O
  O20      1.0000 0.77622  0.62570  0.48102  Biso   1.000  O
  O21      1.0000 0.29037  0.13413  0.95271  Biso   1.000  O
  O22      1.0000 0.27557  0.62222  0.98037  Biso   1.000  O
  O23      1.0000 0.77772  0.12030  0.98392  Biso   1.000  O
  O24      1.0000 0.77761  0.62149  0.98266  Biso   1.000  O
  O25      1.0000 0.22289  0.37897  0.01694  Biso   1.000  O
  O26      1.0000 0.22519  0.88020  0.00464  Biso   1.000  O
  O27      1.0000 0.72856  0.37808  0.02292  Biso   1.000  O
  O28      1.0000 0.72258  0.87768  0.02443  Biso   1.000  O
  O29      1.0000 0.22541  0.37293  0.51870  Biso   1.000  O
  O30      1.0000 0.22329  0.87065  0.51803  Biso   1.000  O
  O31      1.0000 0.72747  0.37050  0.52078  Biso   1.000  O
  O32      1.0000 0.73158  0.86947  0.52012  Biso   1.000  O
