data_image0
_cell_length_a       10.1856
_cell_length_b       10.373
_cell_length_c       10.499
_cell_angle_alpha    90.0009
_cell_angle_beta     80.5794
_cell_angle_gamma    89.9844

_symmetry_space_group_name_H-M    "P 1"
_symmetry_int_tables_number       1

loop_
  _symmetry_equiv_pos_as_xyz
  'x, y, z'

loop_
  _atom_site_label
  _atom_site_occupancy
  _atom_site_fract_x
  _atom_site_fract_y
  _atom_site_fract_z
  _atom_site_thermal_displace_type
  _atom_site_B_iso_or_equiv
  _atom_site_type_symbol
  Pb1      1.0000 0.13607  0.01772  0.14609  Biso   1.000  Pb
  Zr1      1.0000 0.13879  0.02124  0.64480  Biso   1.000  Zr
  Zr2      1.0000 0.13861  0.52141  0.14475  Biso   1.000  Zr
  Zr3      1.0000 0.13900  0.52128  0.64535  Biso   1.000  Zr
  Zr4      1.0000 0.63906  0.02115  0.14537  Biso   1.000  Zr
  Zr5      1.0000 0.63908  0.02180  0.64585  Biso   1.000  Zr
  Zr6      1.0000 0.63874  0.52019  0.14539  Biso   1.000  Zr
  Zr7      1.0000 0.63891  0.52115  0.64531  Biso   1.000  Zr
  Zr8      1.0000 0.13868  0.22960  0.39620  Biso   1.000  Zr
  Zr9      1.0000 0.13953  0.22952  0.89319  Biso   1.000  Zr
  Zr10     1.0000 0.13793  0.72782  0.39600  Biso   1.000  Zr
  Zr11     1.0000 0.13879  0.72856  0.89470  Biso   1.000  Zr
  Zr12     1.0000 0.63840  0.22932  0.39562  Biso   1.000  Zr
  Zr13     1.0000 0.63932  0.22889  0.89570  Biso   1.000  Zr
  Zr14     1.0000 0.63816  0.72760  0.39553  Biso   1.000  Zr
  Zr15     1.0000 0.63935  0.72883  0.89440  Biso   1.000  Zr
  Zr16     1.0000 0.36111  0.27147  0.10405  Biso   1.000  Zr
  Zr17     1.0000 0.36152  0.27147  0.60425  Biso   1.000  Zr
  Zr18     1.0000 0.36373  0.76983  0.10466  Biso   1.000  Zr
  Zr19     1.0000 0.36106  0.77116  0.60470  Biso   1.000  Zr
  Zr20     1.0000 0.86062  0.27145  0.10507  Biso   1.000  Zr
  Zr21     1.0000 0.86136  0.27168  0.60521  Biso   1.000  Zr
  Zr22     1.0000 0.85934  0.76901  0.10387  Biso   1.000  Zr
  Zr23     1.0000 0.86134  0.77131  0.60491  Biso   1.000  Zr
  Zr24     1.0000 0.36062  0.47869  0.35424  Biso   1.000  Zr
  Zr25     1.0000 0.36174  0.47904  0.85453  Biso   1.000  Zr
  Zr26     1.0000 0.36230  0.97857  0.35551  Biso   1.000  Zr
  Zr27     1.0000 0.36280  0.97936  0.85283  Biso   1.000  Zr
  Zr28     1.0000 0.86123  0.47876  0.35477  Biso   1.000  Zr
  Zr29     1.0000 0.86149  0.47840  0.85453  Biso   1.000  Zr
  Zr30     1.0000 0.85670  0.97843  0.35802  Biso   1.000  Zr
  Zr31     1.0000 0.86186  0.97887  0.85508  Biso   1.000  Zr
  O1       1.0000 0.03767  0.17761  0.07919  Biso   1.000  O
  O2       1.0000 0.03673  0.17190  0.58250  Biso   1.000  O
  O3       1.0000 0.03647  0.67151  0.08117  Biso   1.000  O
  O4       1.0000 0.03601  0.67042  0.58171  Biso   1.000  O
  O5       1.0000 0.53657  0.17027  0.08094  Biso   1.000  O
  O6       1.0000 0.53597  0.17038  0.58100  Biso   1.000  O
  O7       1.0000 0.53752  0.66978  0.08052  Biso   1.000  O
  O8       1.0000 0.53578  0.66963  0.58104  Biso   1.000  O
  O9       1.0000 0.03209  0.07994  0.33763  Biso   1.000  O
  O10      1.0000 0.03699  0.07906  0.83107  Biso   1.000  O
  O11      1.0000 0.03621  0.57931  0.33103  Biso   1.000  O
  O12      1.0000 0.03634  0.57941  0.83111  Biso   1.000  O
  O13      1.0000 0.53667  0.07931  0.33162  Biso   1.000  O
  O14      1.0000 0.53720  0.07999  0.83042  Biso   1.000  O
  O15      1.0000 0.53547  0.57944  0.33067  Biso   1.000  O
  O16      1.0000 0.53643  0.57984  0.83078  Biso   1.000  O
  O17      1.0000 0.46390  0.41994  0.16893  Biso   1.000  O
  O18      1.0000 0.46433  0.42008  0.66906  Biso   1.000  O
  O19      1.0000 0.46453  0.92000  0.16934  Biso   1.000  O
  O20      1.0000 0.46464  0.92029  0.66811  Biso   1.000  O
  O21      1.0000 0.96266  0.42214  0.16858  Biso   1.000  O
  O22      1.0000 0.96393  0.42086  0.66895  Biso   1.000  O
  O23      1.0000 0.95285  0.92092  0.17013  Biso   1.000  O
  O24      1.0000 0.96377  0.92061  0.66888  Biso   1.000  O
  O25      1.0000 0.46370  0.32975  0.41874  Biso   1.000  O
  O26      1.0000 0.46486  0.33032  0.91895  Biso   1.000  O
  O27      1.0000 0.46382  0.82897  0.41938  Biso   1.000  O
  O28      1.0000 0.46442  0.82928  0.91833  Biso   1.000  O
  O29      1.0000 0.96361  0.33028  0.41966  Biso   1.000  O
  O30      1.0000 0.96335  0.32949  0.91842  Biso   1.000  O
  O31      1.0000 0.96318  0.82941  0.41914  Biso   1.000  O
  O32      1.0000 0.96401  0.82943  0.91902  Biso   1.000  O
  O33      1.0000 0.27831  0.12993  0.24232  Biso   1.000  O
  O34      1.0000 0.27629  0.12913  0.73877  Biso   1.000  O
  O35      1.0000 0.27628  0.62760  0.24024  Biso   1.000  O
  O36      1.0000 0.27599  0.62899  0.74043  Biso   1.000  O
  O37      1.0000 0.77517  0.12974  0.24162  Biso   1.000  O
  O38      1.0000 0.77665  0.12937  0.74112  Biso   1.000  O
  O39      1.0000 0.77517  0.62834  0.24072  Biso   1.000  O
  O40      1.0000 0.77610  0.62918  0.74039  Biso   1.000  O
  O41      1.0000 0.27618  0.12108  0.49031  Biso   1.000  O
  O42      1.0000 0.27991  0.12381  0.98508  Biso   1.000  O
  O43      1.0000 0.27568  0.62079  0.49067  Biso   1.000  O
  O44      1.0000 0.27610  0.62141  0.99023  Biso   1.000  O
  O45      1.0000 0.77519  0.12135  0.49199  Biso   1.000  O
  O46      1.0000 0.77626  0.12080  0.99105  Biso   1.000  O
  O47      1.0000 0.77590  0.62088  0.49064  Biso   1.000  O
  O48      1.0000 0.77590  0.62016  0.99007  Biso   1.000  O
  O49      1.0000 0.22492  0.38040  0.00847  Biso   1.000  O
  O50      1.0000 0.22403  0.37936  0.50910  Biso   1.000  O
  O51      1.0000 0.22801  0.87731  0.00640  Biso   1.000  O
  O52      1.0000 0.22422  0.87898  0.50958  Biso   1.000  O
  O53      1.0000 0.72400  0.37886  0.00950  Biso   1.000  O
  O54      1.0000 0.72391  0.37906  0.50956  Biso   1.000  O
  O55      1.0000 0.72357  0.87869  0.00904  Biso   1.000  O
  O56      1.0000 0.72295  0.87870  0.51039  Biso   1.000  O
  O57      1.0000 0.22374  0.37057  0.25895  Biso   1.000  O
  O58      1.0000 0.22468  0.37161  0.75856  Biso   1.000  O
  O59      1.0000 0.22681  0.86650  0.26052  Biso   1.000  O
  O60      1.0000 0.22451  0.87081  0.75881  Biso   1.000  O
  O61      1.0000 0.72374  0.37115  0.25973  Biso   1.000  O
  O62      1.0000 0.72432  0.37106  0.75946  Biso   1.000  O
  O63      1.0000 0.72207  0.87002  0.26040  Biso   1.000  O
  O64      1.0000 0.72458  0.87120  0.75942  Biso   1.000  O
