data_image0
_cell_length_a       10.0746
_cell_length_b       10.2519
_cell_length_c       5.05252
_cell_angle_alpha    88.9694
_cell_angle_beta     88.3877
_cell_angle_gamma    90.6035

_symmetry_space_group_name_H-M    "P 1"
_symmetry_int_tables_number       1

loop_
  _symmetry_equiv_pos_as_xyz
  'x, y, z'

loop_
  _atom_site_label
  _atom_site_occupancy
  _atom_site_fract_x
  _atom_site_fract_y
  _atom_site_fract_z
  _atom_site_thermal_displace_type
  _atom_site_B_iso_or_equiv
  _atom_site_type_symbol
  Pd1      1.0000 0.11903  0.96200  0.25737  Biso   1.000  Pd
  Zr1      1.0000 0.12551  0.50701  0.25645  Biso   1.000  Zr
  Zr2      1.0000 0.61288  0.00149  0.25287  Biso   1.000  Zr
  Zr3      1.0000 0.63037  0.49115  0.23641  Biso   1.000  Zr
  Zr4      1.0000 0.12575  0.26021  0.76363  Biso   1.000  Zr
  Zr5      1.0000 0.12904  0.75039  0.75209  Biso   1.000  Zr
  Zr6      1.0000 0.62277  0.24339  0.75026  Biso   1.000  Zr
  Zr7      1.0000 0.62855  0.74975  0.71853  Biso   1.000  Zr
  Zr8      1.0000 0.36766  0.25168  0.27155  Biso   1.000  Zr
  Zr9      1.0000 0.39121  0.74030  0.23368  Biso   1.000  Zr
  Zr10     1.0000 0.88155  0.24535  0.23590  Biso   1.000  Zr
  Zr11     1.0000 0.86635  0.75552  0.21855  Biso   1.000  Zr
  Zr12     1.0000 0.36184  0.00905  0.79198  Biso   1.000  Zr
  Zr13     1.0000 0.38082  0.49821  0.74798  Biso   1.000  Zr
  Zr14     1.0000 0.87094  0.00503  0.72316  Biso   1.000  Zr
  Zr15     1.0000 0.87181  0.48921  0.73759  Biso   1.000  Zr
  O1       1.0000 0.96886  0.16137  0.91625  Biso   1.000  O
  O2       1.0000 0.01871  0.65861  0.05326  Biso   1.000  O
  O3       1.0000 0.48613  0.14556  0.01818  Biso   1.000  O
  O4       1.0000 0.51182  0.63953  0.98201  Biso   1.000  O
  O5       1.0000 0.00176  0.08939  0.42963  Biso   1.000  O
  O6       1.0000 0.01889  0.59555  0.55801  Biso   1.000  O
  O7       1.0000 0.50458  0.09935  0.52534  Biso   1.000  O
  O8       1.0000 0.50750  0.60059  0.48197  Biso   1.000  O
  O9       1.0000 0.00060  0.34840  0.49238  Biso   1.000  O
  O10      1.0000 0.00074  0.84228  0.47864  Biso   1.000  O
  O11      1.0000 0.50050  0.35146  0.49820  Biso   1.000  O
  O12      1.0000 0.49596  0.84992  0.49555  Biso   1.000  O
  O13      1.0000 0.00278  0.40428  0.00405  Biso   1.000  O
  O14      1.0000 0.99952  0.91007  0.97150  Biso   1.000  O
  O15      1.0000 0.50372  0.39297  0.99399  Biso   1.000  O
  O16      1.0000 0.50006  0.89169  0.99588  Biso   1.000  O
  O17      1.0000 0.27081  0.16406  0.57971  Biso   1.000  O
  O18      1.0000 0.26024  0.65766  0.50309  Biso   1.000  O
  O19      1.0000 0.75166  0.14455  0.48699  Biso   1.000  O
  O20      1.0000 0.75958  0.64088  0.49282  Biso   1.000  O
  O21      1.0000 0.22996  0.09865  0.06515  Biso   1.000  O
  O22      1.0000 0.26145  0.60391  0.99937  Biso   1.000  O
  O23      1.0000 0.73241  0.09659  0.97796  Biso   1.000  O
  O24      1.0000 0.76235  0.60059  0.99752  Biso   1.000  O
  O25      1.0000 0.25104  0.35512  0.01386  Biso   1.000  O
  O26      1.0000 0.24533  0.85021  0.04774  Biso   1.000  O
  O27      1.0000 0.75050  0.34801  0.99422  Biso   1.000  O
  O28      1.0000 0.75662  0.84969  0.94950  Biso   1.000  O
  O29      1.0000 0.25015  0.40585  0.50782  Biso   1.000  O
  O30      1.0000 0.23156  0.91904  0.56216  Biso   1.000  O
  O31      1.0000 0.74979  0.39040  0.49390  Biso   1.000  O
  O32      1.0000 0.74876  0.89361  0.45882  Biso   1.000  O
