data_image0
_cell_length_a       5.13925
_cell_length_b       10.439
_cell_length_c       10.6719
_cell_angle_alpha    90.0539
_cell_angle_beta     79.2256
_cell_angle_gamma    90.2303

_symmetry_space_group_name_H-M    "P 1"
_symmetry_int_tables_number       1

loop_
  _symmetry_equiv_pos_as_xyz
  'x, y, z'

loop_
  _atom_site_label
  _atom_site_occupancy
  _atom_site_fract_x
  _atom_site_fract_y
  _atom_site_fract_z
  _atom_site_thermal_displace_type
  _atom_site_B_iso_or_equiv
  _atom_site_type_symbol
  Zr1      1.0000 0.27279  0.01510  0.14736  Biso   1.000  Zr
  Zr2      1.0000 0.29720  0.22916  0.40918  Biso   1.000  Zr
  Zr3      1.0000 0.68947  0.27507  0.08530  Biso   1.000  Zr
  Zr4      1.0000 0.71816  0.48807  0.35698  Biso   1.000  Zr
  O1       1.0000 0.05306  0.15906  0.06721  Biso   1.000  O
  O2       1.0000 0.09551  0.04841  0.35042  Biso   1.000  O
  O3       1.0000 0.92022  0.43126  0.16261  Biso   1.000  O
  O4       1.0000 0.96420  0.36864  0.45232  Biso   1.000  O
  O5       1.0000 0.51561  0.13105  0.23344  Biso   1.000  O
  O6       1.0000 0.57363  0.12122  0.48893  Biso   1.000  O
  O7       1.0000 0.42733  0.38347  0.00562  Biso   1.000  O
  O8       1.0000 0.44650  0.37322  0.25903  Biso   1.000  O
  Zr5      1.0000 0.27770  0.02172  0.64409  Biso   1.000  Zr
  Zr6      1.0000 0.26363  0.22480  0.89175  Biso   1.000  Zr
  Zr7      1.0000 0.73253  0.27869  0.61124  Biso   1.000  Zr
  Zr8      1.0000 0.71266  0.48293  0.85664  Biso   1.000  Zr
  O9       1.0000 0.07643  0.16939  0.58310  Biso   1.000  O
  O10      1.0000 0.05795  0.08440  0.82207  Biso   1.000  O
  O11      1.0000 0.93763  0.41407  0.68800  Biso   1.000  O
  O12      1.0000 0.92191  0.33573  0.91983  Biso   1.000  O
  O13      1.0000 0.54505  0.12800  0.73982  Biso   1.000  O
  O14      1.0000 0.54089  0.12286  0.98514  Biso   1.000  O
  O15      1.0000 0.46269  0.37649  0.51351  Biso   1.000  O
  O16      1.0000 0.44885  0.37298  0.76104  Biso   1.000  O
  Zr9      1.0000 0.26748  0.52557  0.14668  Biso   1.000  Zr
  Zr10     1.0000 0.27504  0.72635  0.39808  Biso   1.000  Zr
  Zr11     1.0000 0.71566  0.77166  0.10544  Biso   1.000  Zr
  Zr12     1.0000 0.72578  0.96303  0.36112  Biso   1.000  Zr
  O17      1.0000 0.06548  0.67367  0.07885  Biso   1.000  O
  O18      1.0000 0.06254  0.58995  0.32428  Biso   1.000  O
  O19      1.0000 0.92143  0.91637  0.17731  Biso   1.000  O
  O20      1.0000 0.91800  0.81904  0.42563  Biso   1.000  O
  O21      1.0000 0.54786  0.62984  0.24370  Biso   1.000  O
  O22      1.0000 0.54032  0.62094  0.49367  Biso   1.000  O
  O23      1.0000 0.44649  0.87955  0.01122  Biso   1.000  O
  O24      1.0000 0.44607  0.86585  0.26072  Biso   1.000  O
  Zr13     1.0000 0.27220  0.52112  0.64909  Biso   1.000  Zr
  Zr14     1.0000 0.26841  0.73052  0.89802  Biso   1.000  Zr
  Zr15     1.0000 0.71970  0.76883  0.60954  Biso   1.000  Zr
  Zr16     1.0000 0.71711  0.97803  0.85308  Biso   1.000  Zr
  O25      1.0000 0.06001  0.66179  0.58037  Biso   1.000  O
  O26      1.0000 0.05986  0.58860  0.82980  Biso   1.000  O
  O27      1.0000 0.93113  0.91405  0.67210  Biso   1.000  O
  O28      1.0000 0.92898  0.83796  0.92431  Biso   1.000  O
  O29      1.0000 0.54486  0.62741  0.74256  Biso   1.000  O
  O30      1.0000 0.54469  0.62520  0.99278  Biso   1.000  O
  O31      1.0000 0.44693  0.87486  0.51409  Biso   1.000  O
  O32      1.0000 0.44582  0.87135  0.76221  Biso   1.000  O
  Rb1      1.0000 0.89915  0.23275  0.28566  Biso   1.000  Rb
