data_image0
_cell_length_a       10.0512
_cell_length_b       10.1836
_cell_length_c       10.0512
_cell_angle_alpha    90
_cell_angle_beta     90
_cell_angle_gamma    90

_symmetry_space_group_name_H-M    "P 1"
_symmetry_int_tables_number       1

loop_
  _symmetry_equiv_pos_as_xyz
  'x, y, z'

loop_
  _atom_site_label
  _atom_site_occupancy
  _atom_site_fract_x
  _atom_site_fract_y
  _atom_site_fract_z
  _atom_site_thermal_displace_type
  _atom_site_B_iso_or_equiv
  _atom_site_type_symbol
  Re1      1.0000 0.12540  0.00007  0.12540  Biso   1.000  Re
  Zr1      1.0000 0.12585  0.24912  0.37405  Biso   1.000  Zr
  Zr2      1.0000 0.37405  0.24912  0.12585  Biso   1.000  Zr
  Zr3      1.0000 0.37443  0.99920  0.37443  Biso   1.000  Zr
  O1       1.0000 0.00010  0.13939  0.00010  Biso   1.000  O
  O2       1.0000 0.00593  0.10422  0.24487  Biso   1.000  O
  O3       1.0000 0.99808  0.35528  0.25272  Biso   1.000  O
  O4       1.0000 0.00185  0.39335  0.00185  Biso   1.000  O
  O5       1.0000 0.25069  0.13938  0.25069  Biso   1.000  O
  O6       1.0000 0.24487  0.10422  0.00593  Biso   1.000  O
  O7       1.0000 0.25272  0.35528  0.99808  Biso   1.000  O
  O8       1.0000 0.24894  0.39335  0.24894  Biso   1.000  O
  Zr4      1.0000 0.12540  0.00007  0.62540  Biso   1.000  Zr
  Zr5      1.0000 0.12495  0.24912  0.87674  Biso   1.000  Zr
  Zr6      1.0000 0.37559  0.25007  0.62548  Biso   1.000  Zr
  Zr7      1.0000 0.37443  0.00096  0.87637  Biso   1.000  Zr
  O9       1.0000 0.99672  0.14555  0.49540  Biso   1.000  O
  O10      1.0000 0.00219  0.10498  0.74838  Biso   1.000  O
  O11      1.0000 0.99837  0.35425  0.75282  Biso   1.000  O
  O12      1.0000 0.00136  0.39542  0.50174  Biso   1.000  O
  O13      1.0000 0.25408  0.14555  0.75539  Biso   1.000  O
  O14      1.0000 0.24860  0.10498  0.50242  Biso   1.000  O
  O15      1.0000 0.25242  0.35426  0.49798  Biso   1.000  O
  O16      1.0000 0.24943  0.39542  0.74905  Biso   1.000  O
  Zr8      1.0000 0.12540  0.50008  0.12540  Biso   1.000  Zr
  Zr9      1.0000 0.12495  0.75103  0.37405  Biso   1.000  Zr
  Zr10     1.0000 0.37405  0.75103  0.12495  Biso   1.000  Zr
  Zr11     1.0000 0.37558  0.49992  0.37558  Biso   1.000  Zr
  O17      1.0000 0.99808  0.64487  0.99808  Biso   1.000  O
  O18      1.0000 0.00185  0.60680  0.24894  Biso   1.000  O
  O19      1.0000 0.00010  0.86077  0.25069  Biso   1.000  O
  O20      1.0000 0.00593  0.89593  0.00593  Biso   1.000  O
  O21      1.0000 0.25272  0.64487  0.25272  Biso   1.000  O
  O22      1.0000 0.24894  0.60680  0.00185  Biso   1.000  O
  O23      1.0000 0.25069  0.86077  0.00010  Biso   1.000  O
  O24      1.0000 0.24487  0.89594  0.24487  Biso   1.000  O
  Zr12     1.0000 0.12540  0.50008  0.62540  Biso   1.000  Zr
  Zr13     1.0000 0.12585  0.75103  0.87674  Biso   1.000  Zr
  Zr14     1.0000 0.37559  0.75008  0.62531  Biso   1.000  Zr
  Zr15     1.0000 0.37558  0.50023  0.87521  Biso   1.000  Zr
  O25      1.0000 0.99837  0.64590  0.49797  Biso   1.000  O
  O26      1.0000 0.00136  0.60473  0.74906  Biso   1.000  O
  O27      1.0000 0.99672  0.85461  0.75539  Biso   1.000  O
  O28      1.0000 0.00219  0.89517  0.50242  Biso   1.000  O
  O29      1.0000 0.25243  0.64590  0.75282  Biso   1.000  O
  O30      1.0000 0.24943  0.60473  0.50174  Biso   1.000  O
  O31      1.0000 0.25408  0.85461  0.49540  Biso   1.000  O
  O32      1.0000 0.24860  0.89517  0.74838  Biso   1.000  O
  Zr16     1.0000 0.62540  0.00007  0.12540  Biso   1.000  Zr
  Zr17     1.0000 0.62548  0.25007  0.37559  Biso   1.000  Zr
  Zr18     1.0000 0.87674  0.24912  0.12495  Biso   1.000  Zr
  Zr19     1.0000 0.87637  0.00096  0.37443  Biso   1.000  Zr
  O33      1.0000 0.49540  0.14555  0.99672  Biso   1.000  O
  O34      1.0000 0.50242  0.10498  0.24860  Biso   1.000  O
  O35      1.0000 0.49798  0.35426  0.25242  Biso   1.000  O
  O36      1.0000 0.50174  0.39542  0.00136  Biso   1.000  O
  O37      1.0000 0.75539  0.14555  0.25407  Biso   1.000  O
  O38      1.0000 0.74837  0.10498  0.00219  Biso   1.000  O
  O39      1.0000 0.75282  0.35425  0.99837  Biso   1.000  O
  O40      1.0000 0.74905  0.39542  0.24943  Biso   1.000  O
  Zr20     1.0000 0.62540  0.00007  0.62540  Biso   1.000  Zr
  Zr21     1.0000 0.62531  0.25007  0.87520  Biso   1.000  Zr
  Zr22     1.0000 0.87520  0.25007  0.62531  Biso   1.000  Zr
  Zr23     1.0000 0.87637  0.99920  0.87637  Biso   1.000  Zr
  O41      1.0000 0.49711  0.14507  0.49711  Biso   1.000  O
  O42      1.0000 0.50215  0.10528  0.74864  Biso   1.000  O
  O43      1.0000 0.49863  0.35530  0.75217  Biso   1.000  O
  O44      1.0000 0.50160  0.39496  0.50160  Biso   1.000  O
  O45      1.0000 0.75368  0.14507  0.75368  Biso   1.000  O
  O46      1.0000 0.74864  0.10528  0.50215  Biso   1.000  O
  O47      1.0000 0.75217  0.35530  0.49863  Biso   1.000  O
  O48      1.0000 0.74919  0.39496  0.74919  Biso   1.000  O
  Zr24     1.0000 0.62540  0.50008  0.12540  Biso   1.000  Zr
  Zr25     1.0000 0.62531  0.75008  0.37559  Biso   1.000  Zr
  Zr26     1.0000 0.87674  0.75103  0.12585  Biso   1.000  Zr
  Zr27     1.0000 0.87521  0.50023  0.37558  Biso   1.000  Zr
  O49      1.0000 0.49797  0.64590  0.99837  Biso   1.000  O
  O50      1.0000 0.50174  0.60473  0.24943  Biso   1.000  O
  O51      1.0000 0.49540  0.85461  0.25408  Biso   1.000  O
  O52      1.0000 0.50242  0.89517  0.00219  Biso   1.000  O
  O53      1.0000 0.75282  0.64590  0.25242  Biso   1.000  O
  O54      1.0000 0.74906  0.60473  0.00136  Biso   1.000  O
  O55      1.0000 0.75539  0.85461  0.99672  Biso   1.000  O
  O56      1.0000 0.74838  0.89517  0.24860  Biso   1.000  O
  Zr28     1.0000 0.62540  0.50008  0.62540  Biso   1.000  Zr
  Zr29     1.0000 0.62548  0.75008  0.87520  Biso   1.000  Zr
  Zr30     1.0000 0.87520  0.75008  0.62548  Biso   1.000  Zr
  Zr31     1.0000 0.87521  0.49992  0.87521  Biso   1.000  Zr
  O57      1.0000 0.49862  0.64485  0.49863  Biso   1.000  O
  O58      1.0000 0.50160  0.60519  0.74919  Biso   1.000  O
  O59      1.0000 0.49711  0.85508  0.75368  Biso   1.000  O
  O60      1.0000 0.50215  0.89488  0.50215  Biso   1.000  O
  O61      1.0000 0.75217  0.64485  0.75217  Biso   1.000  O
  O62      1.0000 0.74919  0.60519  0.50160  Biso   1.000  O
  O63      1.0000 0.75368  0.85508  0.49711  Biso   1.000  O
  O64      1.0000 0.74864  0.89487  0.74864  Biso   1.000  O
