data_image0
_cell_length_a       10.1319
_cell_length_b       10.3493
_cell_length_c       10.5539
_cell_angle_alpha    89.7196
_cell_angle_beta     90.4267
_cell_angle_gamma    89.9391

_symmetry_space_group_name_H-M    "P 1"
_symmetry_int_tables_number       1

loop_
  _symmetry_equiv_pos_as_xyz
  'x, y, z'

loop_
  _atom_site_label
  _atom_site_occupancy
  _atom_site_fract_x
  _atom_site_fract_y
  _atom_site_fract_z
  _atom_site_thermal_displace_type
  _atom_site_B_iso_or_equiv
  _atom_site_type_symbol
  Zr1      1.0000 0.14034  0.02045  0.17113  Biso   1.000  Zr
  Zr2      1.0000 0.13630  0.23018  0.42203  Biso   1.000  Zr
  Zr3      1.0000 0.35750  0.26746  0.17637  Biso   1.000  Zr
  Zr4      1.0000 0.36002  0.48073  0.42320  Biso   1.000  Zr
  Zr5      1.0000 0.63787  0.01306  0.06787  Biso   1.000  Zr
  Zr6      1.0000 0.63144  0.23044  0.34430  Biso   1.000  Zr
  Zr7      1.0000 0.87622  0.27107  0.07365  Biso   1.000  Zr
  Zr8      1.0000 0.86303  0.48125  0.33131  Biso   1.000  Zr
  O1       1.0000 0.03895  0.16218  0.07746  Biso   1.000  O
  O2       1.0000 0.02545  0.09277  0.32630  Biso   1.000  O
  O3       1.0000 0.47213  0.41758  0.08357  Biso   1.000  O
  O4       1.0000 0.45891  0.33125  0.34276  Biso   1.000  O
  O5       1.0000 0.26848  0.12421  0.29783  Biso   1.000  O
  O6       1.0000 0.27734  0.12181  0.04300  Biso   1.000  O
  O7       1.0000 0.22097  0.37616  0.29636  Biso   1.000  O
  O8       1.0000 0.22661  0.37542  0.04354  Biso   1.000  O
  O9       1.0000 0.50936  0.13015  0.18487  Biso   1.000  O
  O10      1.0000 0.52847  0.08649  0.42944  Biso   1.000  O
  O11      1.0000 0.96942  0.41471  0.16974  Biso   1.000  O
  O12      1.0000 0.96644  0.33839  0.42030  Biso   1.000  O
  O13      1.0000 0.77721  0.12191  0.45513  Biso   1.000  O
  O14      1.0000 0.75380  0.14418  0.19365  Biso   1.000  O
  O15      1.0000 0.72488  0.37397  0.46210  Biso   1.000  O
  O16      1.0000 0.72137  0.39197  0.21155  Biso   1.000  O
  Zr9      1.0000 0.14023  0.02100  0.66995  Biso   1.000  Zr
  Zr10     1.0000 0.14578  0.22661  0.91772  Biso   1.000  Zr
  Zr11     1.0000 0.36436  0.27084  0.67120  Biso   1.000  Zr
  Zr12     1.0000 0.36148  0.47864  0.91886  Biso   1.000  Zr
  Zr13     1.0000 0.63884  0.02078  0.58267  Biso   1.000  Zr
  Zr14     1.0000 0.63958  0.22369  0.83486  Biso   1.000  Zr
  Zr15     1.0000 0.86116  0.27012  0.58259  Biso   1.000  Zr
  Zr16     1.0000 0.86291  0.47943  0.82904  Biso   1.000  Zr
  O17      1.0000 0.03191  0.16363  0.58126  Biso   1.000  O
  O18      1.0000 0.03753  0.08514  0.82967  Biso   1.000  O
  O19      1.0000 0.46777  0.41727  0.58580  Biso   1.000  O
  O20      1.0000 0.46860  0.33508  0.83524  Biso   1.000  O
  O21      1.0000 0.27878  0.12315  0.79327  Biso   1.000  O
  O22      1.0000 0.27450  0.12605  0.54524  Biso   1.000  O
  O23      1.0000 0.22645  0.37355  0.79357  Biso   1.000  O
  O24      1.0000 0.22448  0.37602  0.54559  Biso   1.000  O
  O25      1.0000 0.53403  0.16586  0.66892  Biso   1.000  O
  O26      1.0000 0.53508  0.06634  0.90228  Biso   1.000  O
  O27      1.0000 0.96745  0.41489  0.66761  Biso   1.000  O
  O28      1.0000 0.97268  0.33613  0.91364  Biso   1.000  O
  O29      1.0000 0.79225  0.11690  0.94713  Biso   1.000  O
  O30      1.0000 0.77692  0.12397  0.70327  Biso   1.000  O
  O31      1.0000 0.72415  0.37538  0.96653  Biso   1.000  O
  O32      1.0000 0.72619  0.37494  0.71209  Biso   1.000  O
  Zr17     1.0000 0.14064  0.52063  0.17134  Biso   1.000  Zr
  Zr18     1.0000 0.13771  0.72962  0.42062  Biso   1.000  Zr
  Zr19     1.0000 0.35938  0.77202  0.17229  Biso   1.000  Zr
  Zr20     1.0000 0.36095  0.97873  0.42377  Biso   1.000  Zr
  Zr21     1.0000 0.64327  0.53882  0.07869  Biso   1.000  Zr
  Zr22     1.0000 0.63893  0.73205  0.33055  Biso   1.000  Zr
  Zr23     1.0000 0.86624  0.77458  0.07905  Biso   1.000  Zr
  Zr24     1.0000 0.86046  0.98027  0.32862  Biso   1.000  Zr
  O33      1.0000 0.03369  0.66344  0.08165  Biso   1.000  O
  O34      1.0000 0.03206  0.58807  0.33109  Biso   1.000  O
  O35      1.0000 0.46682  0.90480  0.07566  Biso   1.000  O
  O36      1.0000 0.46776  0.83875  0.33219  Biso   1.000  O
  O37      1.0000 0.27436  0.62518  0.29567  Biso   1.000  O
  O38      1.0000 0.27750  0.62380  0.04529  Biso   1.000  O
  O39      1.0000 0.22369  0.87468  0.29565  Biso   1.000  O
  O40      1.0000 0.22203  0.87326  0.04612  Biso   1.000  O
  O41      1.0000 0.53162  0.66756  0.17091  Biso   1.000  O
  O42      1.0000 0.53282  0.58596  0.41781  Biso   1.000  O
  O43      1.0000 0.96757  0.91834  0.16682  Biso   1.000  O
  O44      1.0000 0.96622  0.83904  0.41542  Biso   1.000  O
  O45      1.0000 0.77562  0.62466  0.45495  Biso   1.000  O
  O46      1.0000 0.77885  0.63513  0.20566  Biso   1.000  O
  O47      1.0000 0.72388  0.87478  0.45603  Biso   1.000  O
  O48      1.0000 0.72721  0.88011  0.20588  Biso   1.000  O
  Zr25     1.0000 0.13820  0.52047  0.67006  Biso   1.000  Zr
  Zr26     1.0000 0.13990  0.72714  0.92103  Biso   1.000  Zr
  Zr27     1.0000 0.36176  0.76944  0.67076  Biso   1.000  Zr
  Zr28     1.0000 0.36010  0.97365  0.91922  Biso   1.000  Zr
  Zr29     1.0000 0.63952  0.52072  0.58012  Biso   1.000  Zr
  Zr30     1.0000 0.63972  0.72898  0.82562  Biso   1.000  Zr
  Zr31     1.0000 0.86161  0.77185  0.57827  Biso   1.000  Zr
  Zr32     1.0000 0.86567  0.97772  0.82691  Biso   1.000  Zr
  O49      1.0000 0.03158  0.66417  0.57991  Biso   1.000  O
  O50      1.0000 0.03247  0.58606  0.83025  Biso   1.000  O
  O51      1.0000 0.46766  0.91242  0.58457  Biso   1.000  O
  O52      1.0000 0.46653  0.82912  0.83069  Biso   1.000  O
  O53      1.0000 0.27544  0.62197  0.79437  Biso   1.000  O
  O54      1.0000 0.27359  0.62582  0.54480  Biso   1.000  O
  O55      1.0000 0.22482  0.87205  0.79407  Biso   1.000  O
  O56      1.0000 0.22484  0.87541  0.54419  Biso   1.000  O
  O57      1.0000 0.53308  0.66376  0.66598  Biso   1.000  O
  O58      1.0000 0.53338  0.58745  0.91748  Biso   1.000  O
  O59      1.0000 0.97045  0.91344  0.66428  Biso   1.000  O
  O60      1.0000 0.97240  0.83595  0.91776  Biso   1.000  O
  O61      1.0000 0.77922  0.62600  0.95308  Biso   1.000  O
  O62      1.0000 0.77680  0.62504  0.70397  Biso   1.000  O
  O63      1.0000 0.72867  0.86949  0.95277  Biso   1.000  O
  O64      1.0000 0.72698  0.87409  0.70466  Biso   1.000  O
  Re1      1.0000 0.60938  0.27048  0.10332  Biso   1.000  Re
