data_image0
_cell_length_a       10.1299
_cell_length_b       5.2045
_cell_length_c       10.6031
_cell_angle_alpha    89.6188
_cell_angle_beta     90.693
_cell_angle_gamma    90.1268

_symmetry_space_group_name_H-M    "P 1"
_symmetry_int_tables_number       1

loop_
  _symmetry_equiv_pos_as_xyz
  'x, y, z'

loop_
  _atom_site_label
  _atom_site_occupancy
  _atom_site_fract_x
  _atom_site_fract_y
  _atom_site_fract_z
  _atom_site_thermal_displace_type
  _atom_site_B_iso_or_equiv
  _atom_site_type_symbol
  Zr1      1.0000 0.13937  0.03433  0.17029  Biso   1.000  Zr
  Zr2      1.0000 0.13481  0.45664  0.42002  Biso   1.000  Zr
  Zr3      1.0000 0.35666  0.53506  0.17464  Biso   1.000  Zr
  Zr4      1.0000 0.36052  0.95987  0.42397  Biso   1.000  Zr
  Zr5      1.0000 0.63978  0.07210  0.07145  Biso   1.000  Zr
  Zr6      1.0000 0.63287  0.46890  0.34332  Biso   1.000  Zr
  Zr7      1.0000 0.88252  0.54177  0.06750  Biso   1.000  Zr
  Zr8      1.0000 0.86107  0.95909  0.33725  Biso   1.000  Zr
  O1       1.0000 0.04172  0.31456  0.07233  Biso   1.000  O
  O2       1.0000 0.02694  0.18611  0.32239  Biso   1.000  O
  O3       1.0000 0.47115  0.81444  0.07674  Biso   1.000  O
  O4       1.0000 0.45992  0.67063  0.33756  Biso   1.000  O
  O5       1.0000 0.26936  0.24530  0.29510  Biso   1.000  O
  O6       1.0000 0.28238  0.23956  0.04279  Biso   1.000  O
  O7       1.0000 0.22066  0.74535  0.29302  Biso   1.000  O
  O8       1.0000 0.22533  0.74230  0.04333  Biso   1.000  O
  O9       1.0000 0.51648  0.28654  0.19193  Biso   1.000  O
  O10      1.0000 0.52793  0.17801  0.43104  Biso   1.000  O
  O11      1.0000 0.96260  0.83081  0.16938  Biso   1.000  O
  O12      1.0000 0.96496  0.67384  0.41979  Biso   1.000  O
  O13      1.0000 0.77475  0.24489  0.45608  Biso   1.000  O
  O14      1.0000 0.76278  0.33039  0.19490  Biso   1.000  O
  O15      1.0000 0.72461  0.74247  0.47051  Biso   1.000  O
  O16      1.0000 0.70591  0.84167  0.23393  Biso   1.000  O
  Zr9      1.0000 0.13951  0.03691  0.66722  Biso   1.000  Zr
  Zr10     1.0000 0.14912  0.44679  0.91487  Biso   1.000  Zr
  Zr11     1.0000 0.36450  0.53520  0.66887  Biso   1.000  Zr
  Zr12     1.0000 0.36181  0.94624  0.91513  Biso   1.000  Zr
  Zr13     1.0000 0.63904  0.04008  0.58476  Biso   1.000  Zr
  Zr14     1.0000 0.63816  0.44967  0.83478  Biso   1.000  Zr
  Zr15     1.0000 0.86102  0.53704  0.58501  Biso   1.000  Zr
  Zr16     1.0000 0.86614  0.95636  0.82772  Biso   1.000  Zr
  O17      1.0000 0.03100  0.32051  0.57737  Biso   1.000  O
  O18      1.0000 0.03749  0.17059  0.82579  Biso   1.000  O
  O19      1.0000 0.46695  0.82876  0.58684  Biso   1.000  O
  O20      1.0000 0.46380  0.64897  0.83535  Biso   1.000  O
  O21      1.0000 0.27907  0.23838  0.79095  Biso   1.000  O
  O22      1.0000 0.27275  0.25009  0.54333  Biso   1.000  O
  O23      1.0000 0.22673  0.74104  0.79019  Biso   1.000  O
  O24      1.0000 0.22477  0.74917  0.54204  Biso   1.000  O
  O25      1.0000 0.53478  0.33087  0.66882  Biso   1.000  O
  O26      1.0000 0.53781  0.12716  0.90016  Biso   1.000  O
  O27      1.0000 0.96899  0.82643  0.66433  Biso   1.000  O
  O28      1.0000 0.98000  0.67027  0.90936  Biso   1.000  O
  O29      1.0000 0.79130  0.23870  0.94726  Biso   1.000  O
  O30      1.0000 0.77750  0.24438  0.70454  Biso   1.000  O
  O31      1.0000 0.73220  0.75131  0.96536  Biso   1.000  O
  O32      1.0000 0.72760  0.74456  0.71510  Biso   1.000  O
  Ru1      1.0000 0.62159  0.55624  0.10088  Biso   1.000  Ru
