data_image0
_cell_length_a       10.0646
_cell_length_b       10.2593
_cell_length_c       5.24891
_cell_angle_alpha    89.8437
_cell_angle_beta     89.8408
_cell_angle_gamma    90.0206

_symmetry_space_group_name_H-M    "P 1"
_symmetry_int_tables_number       1

loop_
  _symmetry_equiv_pos_as_xyz
  'x, y, z'

loop_
  _atom_site_label
  _atom_site_occupancy
  _atom_site_fract_x
  _atom_site_fract_y
  _atom_site_fract_z
  _atom_site_thermal_displace_type
  _atom_site_B_iso_or_equiv
  _atom_site_type_symbol
  Ru1      1.0000 0.13955  0.02085  0.35298  Biso   1.000  Ru
  Zr1      1.0000 0.13929  0.52105  0.34395  Biso   1.000  Zr
  Zr2      1.0000 0.13791  0.22625  0.84612  Biso   1.000  Zr
  Zr3      1.0000 0.13865  0.73053  0.84196  Biso   1.000  Zr
  Zr4      1.0000 0.35919  0.26981  0.34633  Biso   1.000  Zr
  Zr5      1.0000 0.35853  0.77446  0.34150  Biso   1.000  Zr
  Zr6      1.0000 0.36109  0.47922  0.84399  Biso   1.000  Zr
  Zr7      1.0000 0.35914  0.97757  0.84505  Biso   1.000  Zr
  Zr8      1.0000 0.63812  0.02193  0.15474  Biso   1.000  Zr
  Zr9      1.0000 0.63872  0.52152  0.16043  Biso   1.000  Zr
  Zr10     1.0000 0.63835  0.22982  0.65799  Biso   1.000  Zr
  Zr11     1.0000 0.63841  0.72919  0.65735  Biso   1.000  Zr
  Zr12     1.0000 0.86452  0.26860  0.16025  Biso   1.000  Zr
  Zr13     1.0000 0.86378  0.77270  0.15469  Biso   1.000  Zr
  Zr14     1.0000 0.86110  0.47893  0.65917  Biso   1.000  Zr
  Zr15     1.0000 0.86212  0.98068  0.65224  Biso   1.000  Zr
  O1       1.0000 0.03116  0.15559  0.15512  Biso   1.000  O
  O2       1.0000 0.03120  0.66222  0.16101  Biso   1.000  O
  O3       1.0000 0.03460  0.08952  0.63770  Biso   1.000  O
  O4       1.0000 0.03179  0.58668  0.66359  Biso   1.000  O
  O5       1.0000 0.46700  0.41449  0.16914  Biso   1.000  O
  O6       1.0000 0.46936  0.91295  0.16388  Biso   1.000  O
  O7       1.0000 0.46627  0.33471  0.66845  Biso   1.000  O
  O8       1.0000 0.46581  0.83625  0.66597  Biso   1.000  O
  O9       1.0000 0.27540  0.12121  0.59511  Biso   1.000  O
  O10      1.0000 0.27572  0.62578  0.59147  Biso   1.000  O
  O11      1.0000 0.26955  0.11911  0.10892  Biso   1.000  O
  O12      1.0000 0.27573  0.62675  0.09085  Biso   1.000  O
  O13      1.0000 0.22433  0.37455  0.59126  Biso   1.000  O
  O14      1.0000 0.22008  0.87736  0.58343  Biso   1.000  O
  O15      1.0000 0.22495  0.37350  0.09017  Biso   1.000  O
  O16      1.0000 0.22129  0.87726  0.08942  Biso   1.000  O
  O17      1.0000 0.53140  0.16396  0.33723  Biso   1.000  O
  O18      1.0000 0.53210  0.66609  0.33436  Biso   1.000  O
  O19      1.0000 0.52884  0.08853  0.83972  Biso   1.000  O
  O20      1.0000 0.53332  0.58483  0.83398  Biso   1.000  O
  O21      1.0000 0.96911  0.41242  0.33795  Biso   1.000  O
  O22      1.0000 0.97799  0.91748  0.32833  Biso   1.000  O
  O23      1.0000 0.96907  0.33439  0.83685  Biso   1.000  O
  O24      1.0000 0.96819  0.83817  0.83189  Biso   1.000  O
  O25      1.0000 0.77576  0.12382  0.90462  Biso   1.000  O
  O26      1.0000 0.77647  0.62571  0.91195  Biso   1.000  O
  O27      1.0000 0.77452  0.12577  0.40741  Biso   1.000  O
  O28      1.0000 0.77613  0.62619  0.41148  Biso   1.000  O
  O29      1.0000 0.72522  0.37396  0.91255  Biso   1.000  O
  O30      1.0000 0.72405  0.87507  0.90731  Biso   1.000  O
  O31      1.0000 0.72492  0.37583  0.41176  Biso   1.000  O
  O32      1.0000 0.73022  0.87674  0.40839  Biso   1.000  O
