data_image0
_cell_length_a       5.14184
_cell_length_b       10.3181
_cell_length_c       10.6517
_cell_angle_alpha    89.8139
_cell_angle_beta     79.584
_cell_angle_gamma    90.807

_symmetry_space_group_name_H-M    "P 1"
_symmetry_int_tables_number       1

loop_
  _symmetry_equiv_pos_as_xyz
  'x, y, z'

loop_
  _atom_site_label
  _atom_site_occupancy
  _atom_site_fract_x
  _atom_site_fract_y
  _atom_site_fract_z
  _atom_site_thermal_displace_type
  _atom_site_B_iso_or_equiv
  _atom_site_type_symbol
  Zr1      1.0000 0.27611  0.02092  0.14543  Biso   1.000  Zr
  Zr2      1.0000 0.29307  0.23755  0.39984  Biso   1.000  Zr
  Zr3      1.0000 0.71385  0.27138  0.09794  Biso   1.000  Zr
  Zr4      1.0000 0.70211  0.48240  0.35507  Biso   1.000  Zr
  O1       1.0000 0.05705  0.15448  0.06733  Biso   1.000  O
  O2       1.0000 0.09907  0.06911  0.33005  Biso   1.000  O
  O3       1.0000 0.94463  0.38618  0.19619  Biso   1.000  O
  O4       1.0000 0.96741  0.36325  0.44207  Biso   1.000  O
  O5       1.0000 0.57160  0.12695  0.23635  Biso   1.000  O
  O6       1.0000 0.58633  0.12506  0.48153  Biso   1.000  O
  O7       1.0000 0.44511  0.37877  0.00782  Biso   1.000  O
  O8       1.0000 0.42376  0.38169  0.25334  Biso   1.000  O
  Zr5      1.0000 0.27331  0.02272  0.64462  Biso   1.000  Zr
  Zr6      1.0000 0.27061  0.22773  0.89481  Biso   1.000  Zr
  Zr7      1.0000 0.72762  0.27671  0.60868  Biso   1.000  Zr
  Zr8      1.0000 0.71553  0.48027  0.85715  Biso   1.000  Zr
  O9       1.0000 0.07526  0.16532  0.57497  Biso   1.000  O
  O10      1.0000 0.05599  0.09099  0.82008  Biso   1.000  O
  O11      1.0000 0.93955  0.40868  0.68658  Biso   1.000  O
  O12      1.0000 0.94215  0.34708  0.93143  Biso   1.000  O
  O13      1.0000 0.54649  0.12832  0.73823  Biso   1.000  O
  O14      1.0000 0.54508  0.12297  0.98630  Biso   1.000  O
  O15      1.0000 0.45103  0.38208  0.51996  Biso   1.000  O
  O16      1.0000 0.45079  0.37331  0.76202  Biso   1.000  O
  Zr9      1.0000 0.26906  0.52080  0.14671  Biso   1.000  Zr
  Zr10     1.0000 0.26577  0.72607  0.39562  Biso   1.000  Zr
  Zr11     1.0000 0.71695  0.77092  0.10362  Biso   1.000  Zr
  Zr12     1.0000 0.72713  0.96914  0.35404  Biso   1.000  Zr
  O17      1.0000 0.04154  0.65336  0.06994  Biso   1.000  O
  O18      1.0000 0.04689  0.59563  0.31681  Biso   1.000  O
  O19      1.0000 0.94045  0.90756  0.17612  Biso   1.000  O
  O20      1.0000 0.93089  0.83394  0.42905  Biso   1.000  O
  O21      1.0000 0.53928  0.62696  0.23964  Biso   1.000  O
  O22      1.0000 0.53359  0.62582  0.49235  Biso   1.000  O
  O23      1.0000 0.44676  0.87807  0.01153  Biso   1.000  O
  O24      1.0000 0.45215  0.86785  0.25944  Biso   1.000  O
  Zr13     1.0000 0.27119  0.52472  0.64832  Biso   1.000  Zr
  Zr14     1.0000 0.26747  0.72860  0.89738  Biso   1.000  Zr
  Zr15     1.0000 0.71642  0.77153  0.60624  Biso   1.000  Zr
  Zr16     1.0000 0.71833  0.97829  0.85413  Biso   1.000  Zr
  O25      1.0000 0.04858  0.65785  0.57355  Biso   1.000  O
  O26      1.0000 0.05246  0.59480  0.82208  Biso   1.000  O
  O27      1.0000 0.93548  0.91105  0.67690  Biso   1.000  O
  O28      1.0000 0.93366  0.84160  0.92742  Biso   1.000  O
  O29      1.0000 0.54350  0.62858  0.74223  Biso   1.000  O
  O30      1.0000 0.53670  0.62364  0.99119  Biso   1.000  O
  O31      1.0000 0.44714  0.88028  0.51113  Biso   1.000  O
  O32      1.0000 0.44566  0.87271  0.76112  Biso   1.000  O
  Ru1      1.0000 0.82208  0.23646  0.33066  Biso   1.000  Ru
