data_image0
_cell_length_a       10.0467
_cell_length_b       5.09313
_cell_length_c       10.0466
_cell_angle_alpha    89.9948
_cell_angle_beta     89.9958
_cell_angle_gamma    90.0017

_symmetry_space_group_name_H-M    "P 1"
_symmetry_int_tables_number       1

loop_
  _symmetry_equiv_pos_as_xyz
  'x, y, z'

loop_
  _atom_site_label
  _atom_site_occupancy
  _atom_site_fract_x
  _atom_site_fract_y
  _atom_site_fract_z
  _atom_site_thermal_displace_type
  _atom_site_B_iso_or_equiv
  _atom_site_type_symbol
  Sc1      1.0000 0.12500  0.00043  0.12497  Biso   1.000  Sc
  Zr1      1.0000 0.12501  0.00043  0.62498  Biso   1.000  Zr
  Zr2      1.0000 0.62501  0.00044  0.12498  Biso   1.000  Zr
  Zr3      1.0000 0.62500  0.00044  0.62497  Biso   1.000  Zr
  Zr4      1.0000 0.12503  0.50046  0.37177  Biso   1.000  Zr
  Zr5      1.0000 0.12503  0.50043  0.87817  Biso   1.000  Zr
  Zr6      1.0000 0.62503  0.50045  0.37488  Biso   1.000  Zr
  Zr7      1.0000 0.62502  0.50044  0.87505  Biso   1.000  Zr
  Zr8      1.0000 0.37184  0.50043  0.12497  Biso   1.000  Zr
  Zr9      1.0000 0.37494  0.50043  0.62497  Biso   1.000  Zr
  Zr10     1.0000 0.87823  0.50043  0.12497  Biso   1.000  Zr
  Zr11     1.0000 0.87511  0.50045  0.62497  Biso   1.000  Zr
  Zr12     1.0000 0.37284  0.99745  0.37281  Biso   1.000  Zr
  Zr13     1.0000 0.37284  0.00340  0.87715  Biso   1.000  Zr
  Zr14     1.0000 0.87718  0.00342  0.37281  Biso   1.000  Zr
  Zr15     1.0000 0.87718  0.99745  0.87714  Biso   1.000  Zr
  O1       1.0000 0.99784  0.28115  0.99780  Biso   1.000  O
  O2       1.0000 0.00035  0.28763  0.49968  Biso   1.000  O
  O3       1.0000 0.49973  0.28762  0.00031  Biso   1.000  O
  O4       1.0000 0.50036  0.28841  0.50033  Biso   1.000  O
  O5       1.0000 0.00043  0.22252  0.24957  Biso   1.000  O
  O6       1.0000 0.99951  0.21312  0.74923  Biso   1.000  O
  O7       1.0000 0.50077  0.21312  0.25049  Biso   1.000  O
  O8       1.0000 0.49974  0.21259  0.75026  Biso   1.000  O
  O9       1.0000 0.99784  0.71971  0.25215  Biso   1.000  O
  O10      1.0000 0.00034  0.71324  0.75027  Biso   1.000  O
  O11      1.0000 0.49972  0.71324  0.24965  Biso   1.000  O
  O12      1.0000 0.50036  0.71246  0.74963  Biso   1.000  O
  O13      1.0000 0.00043  0.77837  0.00037  Biso   1.000  O
  O14      1.0000 0.99951  0.78777  0.50071  Biso   1.000  O
  O15      1.0000 0.50076  0.78776  0.99946  Biso   1.000  O
  O16      1.0000 0.49974  0.78830  0.49969  Biso   1.000  O
  O17      1.0000 0.25220  0.28117  0.25216  Biso   1.000  O
  O18      1.0000 0.24969  0.28762  0.75027  Biso   1.000  O
  O19      1.0000 0.75031  0.28763  0.24964  Biso   1.000  O
  O20      1.0000 0.74967  0.28840  0.74963  Biso   1.000  O
  O21      1.0000 0.24962  0.22250  0.00038  Biso   1.000  O
  O22      1.0000 0.25053  0.21313  0.50073  Biso   1.000  O
  O23      1.0000 0.74928  0.21311  0.99946  Biso   1.000  O
  O24      1.0000 0.75030  0.21260  0.49969  Biso   1.000  O
  O25      1.0000 0.25219  0.71968  0.99780  Biso   1.000  O
  O26      1.0000 0.24968  0.71325  0.49968  Biso   1.000  O
  O27      1.0000 0.75031  0.71323  0.00031  Biso   1.000  O
  O28      1.0000 0.74967  0.71247  0.50033  Biso   1.000  O
  O29      1.0000 0.24962  0.77838  0.24957  Biso   1.000  O
  O30      1.0000 0.25053  0.78775  0.74924  Biso   1.000  O
  O31      1.0000 0.74927  0.78777  0.25050  Biso   1.000  O
  O32      1.0000 0.75029  0.78830  0.75026  Biso   1.000  O
