data_image0
_cell_length_a       10.2266
_cell_length_b       10.3162
_cell_length_c       5.24589
_cell_angle_alpha    89.9945
_cell_angle_beta     80.1122
_cell_angle_gamma    90.017

_symmetry_space_group_name_H-M    "P 1"
_symmetry_int_tables_number       1

loop_
  _symmetry_equiv_pos_as_xyz
  'x, y, z'

loop_
  _atom_site_label
  _atom_site_occupancy
  _atom_site_fract_x
  _atom_site_fract_y
  _atom_site_fract_z
  _atom_site_thermal_displace_type
  _atom_site_B_iso_or_equiv
  _atom_site_type_symbol
  Sc1      1.0000 0.13904  0.02011  0.29367  Biso   1.000  Sc
  Zr1      1.0000 0.14025  0.52117  0.29120  Biso   1.000  Zr
  Zr2      1.0000 0.63907  0.02100  0.29123  Biso   1.000  Zr
  Zr3      1.0000 0.63856  0.52084  0.29062  Biso   1.000  Zr
  Zr4      1.0000 0.13978  0.22569  0.79170  Biso   1.000  Zr
  Zr5      1.0000 0.14147  0.73090  0.79054  Biso   1.000  Zr
  Zr6      1.0000 0.63892  0.22884  0.79119  Biso   1.000  Zr
  Zr7      1.0000 0.63868  0.72945  0.79172  Biso   1.000  Zr
  Zr8      1.0000 0.35791  0.26811  0.21068  Biso   1.000  Zr
  Zr9      1.0000 0.35910  0.77357  0.20856  Biso   1.000  Zr
  Zr10     1.0000 0.86241  0.26980  0.20750  Biso   1.000  Zr
  Zr11     1.0000 0.86117  0.77226  0.20980  Biso   1.000  Zr
  Zr12     1.0000 0.36042  0.47798  0.70916  Biso   1.000  Zr
  Zr13     1.0000 0.35765  0.98026  0.70992  Biso   1.000  Zr
  Zr14     1.0000 0.86054  0.47925  0.70929  Biso   1.000  Zr
  Zr15     1.0000 0.86248  0.97929  0.70538  Biso   1.000  Zr
  O1       1.0000 0.03395  0.16728  0.15853  Biso   1.000  O
  O2       1.0000 0.03449  0.66741  0.16005  Biso   1.000  O
  O3       1.0000 0.53411  0.16734  0.15955  Biso   1.000  O
  O4       1.0000 0.53337  0.66687  0.15852  Biso   1.000  O
  O5       1.0000 0.03295  0.08346  0.65961  Biso   1.000  O
  O6       1.0000 0.03439  0.58303  0.65994  Biso   1.000  O
  O7       1.0000 0.53428  0.08281  0.65933  Biso   1.000  O
  O8       1.0000 0.53377  0.58288  0.65844  Biso   1.000  O
  O9       1.0000 0.46561  0.41594  0.34180  Biso   1.000  O
  O10      1.0000 0.46679  0.91674  0.34208  Biso   1.000  O
  O11      1.0000 0.96590  0.41818  0.33968  Biso   1.000  O
  O12      1.0000 0.96498  0.91709  0.33983  Biso   1.000  O
  O13      1.0000 0.46603  0.33316  0.84230  Biso   1.000  O
  O14      1.0000 0.46689  0.83433  0.84199  Biso   1.000  O
  O15      1.0000 0.96601  0.33308  0.83922  Biso   1.000  O
  O16      1.0000 0.96591  0.83186  0.83916  Biso   1.000  O
  O17      1.0000 0.27662  0.12846  0.48455  Biso   1.000  O
  O18      1.0000 0.27586  0.62830  0.48121  Biso   1.000  O
  O19      1.0000 0.77514  0.12857  0.48098  Biso   1.000  O
  O20      1.0000 0.77520  0.62865  0.48114  Biso   1.000  O
  O21      1.0000 0.27712  0.12279  0.98092  Biso   1.000  O
  O22      1.0000 0.27591  0.62121  0.98130  Biso   1.000  O
  O23      1.0000 0.77514  0.12171  0.98068  Biso   1.000  O
  O24      1.0000 0.77506  0.62134  0.98115  Biso   1.000  O
  O25      1.0000 0.22429  0.37876  0.01920  Biso   1.000  O
  O26      1.0000 0.22527  0.87787  0.01595  Biso   1.000  O
  O27      1.0000 0.72464  0.37864  0.01846  Biso   1.000  O
  O28      1.0000 0.72511  0.87865  0.01799  Biso   1.000  O
  O29      1.0000 0.22381  0.37145  0.51913  Biso   1.000  O
  O30      1.0000 0.22546  0.87068  0.51802  Biso   1.000  O
  O31      1.0000 0.72491  0.37150  0.51866  Biso   1.000  O
  O32      1.0000 0.72358  0.87144  0.51847  Biso   1.000  O
