data_image0
_cell_length_a       10.2196
_cell_length_b       10.3715
_cell_length_c       10.586
_cell_angle_alpha    89.9408
_cell_angle_beta     79.6152
_cell_angle_gamma    90.0405

_symmetry_space_group_name_H-M    "P 1"
_symmetry_int_tables_number       1

loop_
  _symmetry_equiv_pos_as_xyz
  'x, y, z'

loop_
  _atom_site_label
  _atom_site_occupancy
  _atom_site_fract_x
  _atom_site_fract_y
  _atom_site_fract_z
  _atom_site_thermal_displace_type
  _atom_site_B_iso_or_equiv
  _atom_site_type_symbol
  Zr1      1.0000 0.13708  0.02111  0.14573  Biso   1.000  Zr
  Zr2      1.0000 0.13539  0.22799  0.39527  Biso   1.000  Zr
  Zr3      1.0000 0.34307  0.27375  0.07637  Biso   1.000  Zr
  Zr4      1.0000 0.35826  0.48870  0.35669  Biso   1.000  Zr
  O1       1.0000 0.03348  0.16765  0.07742  Biso   1.000  O
  O2       1.0000 0.03487  0.08153  0.32827  Biso   1.000  O
  O3       1.0000 0.46823  0.41132  0.17546  Biso   1.000  O
  O4       1.0000 0.47353  0.34311  0.42706  Biso   1.000  O
  O5       1.0000 0.27997  0.12382  0.23669  Biso   1.000  O
  O6       1.0000 0.28548  0.12796  0.48059  Biso   1.000  O
  O7       1.0000 0.20691  0.38828  0.99836  Biso   1.000  O
  O8       1.0000 0.23654  0.36273  0.25743  Biso   1.000  O
  Zr5      1.0000 0.13811  0.02166  0.64488  Biso   1.000  Zr
  Zr6      1.0000 0.13335  0.22837  0.89099  Biso   1.000  Zr
  Zr7      1.0000 0.36030  0.27432  0.60519  Biso   1.000  Zr
  Zr8      1.0000 0.35717  0.48380  0.84949  Biso   1.000  Zr
  O9       1.0000 0.03857  0.16952  0.58024  Biso   1.000  O
  O10      1.0000 0.03113  0.08169  0.82694  Biso   1.000  O
  O11      1.0000 0.46541  0.41949  0.67098  Biso   1.000  O
  O12      1.0000 0.46490  0.33829  0.91455  Biso   1.000  O
  O13      1.0000 0.27400  0.12859  0.73612  Biso   1.000  O
  O14      1.0000 0.26925  0.11692  0.98417  Biso   1.000  O
  O15      1.0000 0.22408  0.38194  0.50825  Biso   1.000  O
  O16      1.0000 0.22301  0.37167  0.75501  Biso   1.000  O
  Zr9      1.0000 0.13844  0.52195  0.14563  Biso   1.000  Zr
  Zr10     1.0000 0.13503  0.72830  0.39664  Biso   1.000  Zr
  Zr11     1.0000 0.35997  0.77085  0.10327  Biso   1.000  Zr
  Zr12     1.0000 0.35819  0.96944  0.35318  Biso   1.000  Zr
  O17      1.0000 0.03403  0.66651  0.07988  Biso   1.000  O
  O18      1.0000 0.03475  0.58152  0.32981  Biso   1.000  O
  O19      1.0000 0.46591  0.91480  0.17251  Biso   1.000  O
  O20      1.0000 0.46521  0.83031  0.42393  Biso   1.000  O
  O21      1.0000 0.27563  0.62715  0.24076  Biso   1.000  O
  O22      1.0000 0.27202  0.62638  0.49306  Biso   1.000  O
  O23      1.0000 0.22308  0.87750  0.00960  Biso   1.000  O
  O24      1.0000 0.22074  0.86658  0.25821  Biso   1.000  O
  Zr13     1.0000 0.13684  0.52266  0.64559  Biso   1.000  Zr
  Zr14     1.0000 0.13686  0.72883  0.89669  Biso   1.000  Zr
  Zr15     1.0000 0.36117  0.77267  0.60519  Biso   1.000  Zr
  Zr16     1.0000 0.35979  0.97622  0.85352  Biso   1.000  Zr
  O25      1.0000 0.03071  0.66709  0.57963  Biso   1.000  O
  O26      1.0000 0.03335  0.58237  0.83006  Biso   1.000  O
  O27      1.0000 0.46605  0.91703  0.67275  Biso   1.000  O
  O28      1.0000 0.46580  0.83377  0.92255  Biso   1.000  O
  O29      1.0000 0.27372  0.62967  0.73994  Biso   1.000  O
  O30      1.0000 0.27613  0.62409  0.98986  Biso   1.000  O
  O31      1.0000 0.22277  0.88046  0.51014  Biso   1.000  O
  O32      1.0000 0.22275  0.87139  0.75944  Biso   1.000  O
  Zr17     1.0000 0.64021  0.01932  0.14779  Biso   1.000  Zr
  Zr18     1.0000 0.65140  0.22781  0.40829  Biso   1.000  Zr
  Zr19     1.0000 0.85946  0.27129  0.10735  Biso   1.000  Zr
  Zr20     1.0000 0.86129  0.47858  0.35641  Biso   1.000  Zr
  O33      1.0000 0.52618  0.17058  0.08634  Biso   1.000  O
  O34      1.0000 0.53807  0.07703  0.33440  Biso   1.000  O
  O35      1.0000 0.96711  0.41486  0.17440  Biso   1.000  O
  O36      1.0000 0.96464  0.33244  0.42423  Biso   1.000  O
  O37      1.0000 0.77968  0.12733  0.24447  Biso   1.000  O
  O38      1.0000 0.78413  0.11810  0.49861  Biso   1.000  O
  O39      1.0000 0.72040  0.37819  0.01334  Biso   1.000  O
  O40      1.0000 0.72572  0.37123  0.26468  Biso   1.000  O
  Zr21     1.0000 0.63875  0.02180  0.64980  Biso   1.000  Zr
  Zr22     1.0000 0.63722  0.22960  0.89947  Biso   1.000  Zr
  Zr23     1.0000 0.86244  0.27206  0.61054  Biso   1.000  Zr
  Zr24     1.0000 0.85916  0.47865  0.85748  Biso   1.000  Zr
  O41      1.0000 0.53588  0.16832  0.58218  Biso   1.000  O
  O42      1.0000 0.53128  0.08424  0.83201  Biso   1.000  O
  O43      1.0000 0.96489  0.41812  0.67370  Biso   1.000  O
  O44      1.0000 0.95899  0.32952  0.92060  Biso   1.000  O
  O45      1.0000 0.77395  0.12972  0.74570  Biso   1.000  O
  O46      1.0000 0.77196  0.12058  0.99468  Biso   1.000  O
  O47      1.0000 0.72797  0.37901  0.51567  Biso   1.000  O
  O48      1.0000 0.72268  0.37187  0.76354  Biso   1.000  O
  Zr25     1.0000 0.63794  0.52118  0.14788  Biso   1.000  Zr
  Zr26     1.0000 0.63941  0.72809  0.39775  Biso   1.000  Zr
  Zr27     1.0000 0.86047  0.77088  0.10619  Biso   1.000  Zr
  Zr28     1.0000 0.85922  0.97780  0.35592  Biso   1.000  Zr
  O49      1.0000 0.53232  0.66437  0.07835  Biso   1.000  O
  O50      1.0000 0.53360  0.58617  0.32845  Biso   1.000  O
  O51      1.0000 0.96439  0.91615  0.17245  Biso   1.000  O
  O52      1.0000 0.96412  0.83284  0.42311  Biso   1.000  O
  O53      1.0000 0.77636  0.62782  0.24216  Biso   1.000  O
  O54      1.0000 0.77494  0.62131  0.49215  Biso   1.000  O
  O55      1.0000 0.72328  0.87742  0.01201  Biso   1.000  O
  O56      1.0000 0.72317  0.87051  0.26102  Biso   1.000  O
  Zr29     1.0000 0.63862  0.52298  0.64805  Biso   1.000  Zr
  Zr30     1.0000 0.63779  0.72768  0.89772  Biso   1.000  Zr
  Zr31     1.0000 0.85933  0.77278  0.60662  Biso   1.000  Zr
  Zr32     1.0000 0.85898  0.97793  0.85687  Biso   1.000  Zr
  O57      1.0000 0.53308  0.66673  0.57986  Biso   1.000  O
  O58      1.0000 0.53174  0.58610  0.82775  Biso   1.000  O
  O59      1.0000 0.96454  0.91748  0.67284  Biso   1.000  O
  O60      1.0000 0.96449  0.83261  0.92297  Biso   1.000  O
  O61      1.0000 0.77464  0.62945  0.74252  Biso   1.000  O
  O62      1.0000 0.77478  0.62113  0.99215  Biso   1.000  O
  O63      1.0000 0.72248  0.87819  0.51226  Biso   1.000  O
  O64      1.0000 0.72281  0.87227  0.76237  Biso   1.000  O
  Sc1      1.0000 0.44206  0.23471  0.27392  Biso   1.000  Sc
