data_image0
_cell_length_a       10.1591
_cell_length_b       10.4028
_cell_length_c       5.28878
_cell_angle_alpha    89.8276
_cell_angle_beta     91.4647
_cell_angle_gamma    90.2253

_symmetry_space_group_name_H-M    "P 1"
_symmetry_int_tables_number       1

loop_
  _symmetry_equiv_pos_as_xyz
  'x, y, z'

loop_
  _atom_site_label
  _atom_site_occupancy
  _atom_site_fract_x
  _atom_site_fract_y
  _atom_site_fract_z
  _atom_site_thermal_displace_type
  _atom_site_B_iso_or_equiv
  _atom_site_type_symbol
  Zr1      1.0000 0.14253  0.01988  0.35049  Biso   1.000  Zr
  Zr2      1.0000 0.13891  0.22370  0.85610  Biso   1.000  Zr
  Zr3      1.0000 0.33994  0.27824  0.38039  Biso   1.000  Zr
  Zr4      1.0000 0.35772  0.48129  0.83497  Biso   1.000  Zr
  Zr5      1.0000 0.64858  0.01647  0.14434  Biso   1.000  Zr
  Zr6      1.0000 0.63954  0.22515  0.68714  Biso   1.000  Zr
  Zr7      1.0000 0.86488  0.26470  0.14819  Biso   1.000  Zr
  Zr8      1.0000 0.87240  0.48175  0.65749  Biso   1.000  Zr
  O1       1.0000 0.03590  0.16491  0.17916  Biso   1.000  O
  O2       1.0000 0.03651  0.08117  0.66860  Biso   1.000  O
  O3       1.0000 0.47978  0.40008  0.15251  Biso   1.000  O
  O4       1.0000 0.46499  0.33533  0.68009  Biso   1.000  O
  O5       1.0000 0.27657  0.12396  0.60305  Biso   1.000  O
  O6       1.0000 0.27780  0.12555  0.10284  Biso   1.000  O
  O7       1.0000 0.20382  0.37051  0.61407  Biso   1.000  O
  O8       1.0000 0.22166  0.37842  0.09960  Biso   1.000  O
  O9       1.0000 0.52300  0.17084  0.34455  Biso   1.000  O
  O10      1.0000 0.53714  0.07142  0.82074  Biso   1.000  O
  O11      1.0000 0.95777  0.41631  0.33615  Biso   1.000  O
  O12      1.0000 0.96579  0.33024  0.83580  Biso   1.000  O
  O13      1.0000 0.79300  0.11491  0.89602  Biso   1.000  O
  O14      1.0000 0.77545  0.12090  0.40707  Biso   1.000  O
  O15      1.0000 0.72806  0.38844  0.88667  Biso   1.000  O
  O16      1.0000 0.69743  0.36095  0.36231  Biso   1.000  O
  Zr9      1.0000 0.14292  0.52011  0.34578  Biso   1.000  Zr
  Zr10     1.0000 0.14289  0.72957  0.85093  Biso   1.000  Zr
  Zr11     1.0000 0.36169  0.77315  0.35079  Biso   1.000  Zr
  Zr12     1.0000 0.36268  0.97750  0.85532  Biso   1.000  Zr
  Zr13     1.0000 0.64489  0.54065  0.14201  Biso   1.000  Zr
  Zr14     1.0000 0.64051  0.73199  0.65193  Biso   1.000  Zr
  Zr15     1.0000 0.86952  0.77183  0.15651  Biso   1.000  Zr
  Zr16     1.0000 0.86584  0.97652  0.65197  Biso   1.000  Zr
  O17      1.0000 0.03657  0.66395  0.17213  Biso   1.000  O
  O18      1.0000 0.03482  0.58435  0.67700  Biso   1.000  O
  O19      1.0000 0.47292  0.91509  0.17348  Biso   1.000  O
  O20      1.0000 0.46942  0.83348  0.67106  Biso   1.000  O
  O21      1.0000 0.27116  0.62929  0.59410  Biso   1.000  O
  O22      1.0000 0.27915  0.62722  0.09589  Biso   1.000  O
  O23      1.0000 0.22712  0.87507  0.60079  Biso   1.000  O
  O24      1.0000 0.22700  0.87592  0.10005  Biso   1.000  O
  O25      1.0000 0.53113  0.66368  0.33562  Biso   1.000  O
  O26      1.0000 0.52998  0.59076  0.83684  Biso   1.000  O
  O27      1.0000 0.97224  0.91500  0.33084  Biso   1.000  O
  O28      1.0000 0.97130  0.83255  0.83556  Biso   1.000  O
  O29      1.0000 0.77849  0.63113  0.90189  Biso   1.000  O
  O30      1.0000 0.77778  0.62323  0.40608  Biso   1.000  O
  O31      1.0000 0.72916  0.87401  0.90852  Biso   1.000  O
  O32      1.0000 0.73037  0.87001  0.40495  Biso   1.000  O
  Si1      1.0000 0.58999  0.27901  0.15221  Biso   1.000  Si
