data_image0
_cell_length_a       10.1853
_cell_length_b       10.2803
_cell_length_c       10.1752
_cell_angle_alpha    89.1373
_cell_angle_beta     86.8589
_cell_angle_gamma    90.4815

_symmetry_space_group_name_H-M    "P 1"
_symmetry_int_tables_number       1

loop_
  _symmetry_equiv_pos_as_xyz
  'x, y, z'

loop_
  _atom_site_label
  _atom_site_occupancy
  _atom_site_fract_x
  _atom_site_fract_y
  _atom_site_fract_z
  _atom_site_thermal_displace_type
  _atom_site_B_iso_or_equiv
  _atom_site_type_symbol
  Zr1      1.0000 0.12250  0.98994  0.12283  Biso   1.000  Zr
  Zr2      1.0000 0.13115  0.26346  0.39126  Biso   1.000  Zr
  Zr3      1.0000 0.40410  0.26247  0.13493  Biso   1.000  Zr
  Zr4      1.0000 0.38005  0.98940  0.38544  Biso   1.000  Zr
  O1       1.0000 0.93837  0.17154  0.94146  Biso   1.000  O
  O2       1.0000 0.97031  0.09432  0.21071  Biso   1.000  O
  O3       1.0000 0.99612  0.35234  0.26823  Biso   1.000  O
  O4       1.0000 0.97853  0.43389  0.02275  Biso   1.000  O
  O5       1.0000 0.21748  0.17363  0.19755  Biso   1.000  O
  O6       1.0000 0.20572  0.06505  0.95027  Biso   1.000  O
  O7       1.0000 0.27462  0.30406  0.97300  Biso   1.000  O
  O8       1.0000 0.26132  0.40246  0.27098  Biso   1.000  O
  Zr5      1.0000 0.13815  0.98447  0.62293  Biso   1.000  Zr
  Zr6      1.0000 0.12160  0.22585  0.84749  Biso   1.000  Zr
  Zr7      1.0000 0.38895  0.26004  0.63222  Biso   1.000  Zr
  Zr8      1.0000 0.37893  0.99197  0.87701  Biso   1.000  Zr
  O9       1.0000 0.96668  0.16166  0.46675  Biso   1.000  O
  O10      1.0000 0.00140  0.10561  0.71817  Biso   1.000  O
  O11      1.0000 0.00000  0.35985  0.75299  Biso   1.000  O
  O12      1.0000 0.01075  0.40595  0.50946  Biso   1.000  O
  O13      1.0000 0.24913  0.13387  0.71083  Biso   1.000  O
  O14      1.0000 0.21800  0.09147  0.45596  Biso   1.000  O
  O15      1.0000 0.25547  0.34748  0.51216  Biso   1.000  O
  O16      1.0000 0.25106  0.39067  0.75487  Biso   1.000  O
  Zr9      1.0000 0.12190  0.52077  0.15361  Biso   1.000  Zr
  Zr10     1.0000 0.12095  0.76387  0.37770  Biso   1.000  Zr
  Zr11     1.0000 0.37820  0.74500  0.12936  Biso   1.000  Zr
  Zr12     1.0000 0.38318  0.49974  0.38632  Biso   1.000  Zr
  O17      1.0000 0.03145  0.67245  0.04284  Biso   1.000  O
  O18      1.0000 0.01020  0.60973  0.30110  Biso   1.000  O
  O19      1.0000 0.99818  0.85470  0.25061  Biso   1.000  O
  O20      1.0000 0.99012  0.90798  0.99584  Biso   1.000  O
  O21      1.0000 0.25963  0.65375  0.27691  Biso   1.000  O
  O22      1.0000 0.28007  0.57691  0.03439  Biso   1.000  O
  O23      1.0000 0.25014  0.83542  0.00798  Biso   1.000  O
  O24      1.0000 0.24840  0.90796  0.25243  Biso   1.000  O
  Zr13     1.0000 0.12684  0.50720  0.64233  Biso   1.000  Zr
  Zr14     1.0000 0.11825  0.75810  0.87761  Biso   1.000  Zr
  Zr15     1.0000 0.38162  0.74099  0.63664  Biso   1.000  Zr
  Zr16     1.0000 0.37091  0.48945  0.87826  Biso   1.000  Zr
  O25      1.0000 0.04309  0.66778  0.54404  Biso   1.000  O
  O26      1.0000 0.00697  0.60716  0.78370  Biso   1.000  O
  O27      1.0000 0.00334  0.85859  0.74921  Biso   1.000  O
  O28      1.0000 0.00166  0.90643  0.49549  Biso   1.000  O
  O29      1.0000 0.25554  0.64049  0.77844  Biso   1.000  O
  O30      1.0000 0.28621  0.59186  0.53593  Biso   1.000  O
  O31      1.0000 0.25903  0.84644  0.50542  Biso   1.000  O
  O32      1.0000 0.25648  0.88557  0.74980  Biso   1.000  O
  Zr17     1.0000 0.61957  0.00141  0.12535  Biso   1.000  Zr
  Zr18     1.0000 0.63045  0.24544  0.37499  Biso   1.000  Zr
  Zr19     1.0000 0.88493  0.26204  0.11827  Biso   1.000  Zr
  Zr20     1.0000 0.87783  0.00029  0.37024  Biso   1.000  Zr
  O33      1.0000 0.47824  0.14543  0.99278  Biso   1.000  O
  O34      1.0000 0.47808  0.10671  0.24294  Biso   1.000  O
  O35      1.0000 0.51103  0.36177  0.26065  Biso   1.000  O
  O36      1.0000 0.50190  0.40200  0.01166  Biso   1.000  O
  O37      1.0000 0.72514  0.15528  0.21834  Biso   1.000  O
  O38      1.0000 0.71095  0.08474  0.96528  Biso   1.000  O
  O39      1.0000 0.74060  0.34927  0.99771  Biso   1.000  O
  O40      1.0000 0.75495  0.39645  0.24653  Biso   1.000  O
  Zr21     1.0000 0.62756  0.99428  0.62687  Biso   1.000  Zr
  Zr22     1.0000 0.62958  0.24224  0.87034  Biso   1.000  Zr
  Zr23     1.0000 0.88477  0.25920  0.62585  Biso   1.000  Zr
  Zr24     1.0000 0.87107  0.00326  0.86450  Biso   1.000  Zr
  O41      1.0000 0.47782  0.14701  0.48983  Biso   1.000  O
  O42      1.0000 0.49908  0.10413  0.74483  Biso   1.000  O
  O43      1.0000 0.50228  0.35562  0.75921  Biso   1.000  O
  O44      1.0000 0.50921  0.39834  0.50947  Biso   1.000  O
  O45      1.0000 0.74626  0.14254  0.72514  Biso   1.000  O
  O46      1.0000 0.72044  0.08629  0.46874  Biso   1.000  O
  O47      1.0000 0.75283  0.34301  0.49711  Biso   1.000  O
  O48      1.0000 0.75148  0.38855  0.74850  Biso   1.000  O
  Zr25     1.0000 0.63019  0.50357  0.12899  Biso   1.000  Zr
  Zr26     1.0000 0.62662  0.75707  0.37089  Biso   1.000  Zr
  Zr27     1.0000 0.86883  0.75987  0.12294  Biso   1.000  Zr
  Zr28     1.0000 0.87057  0.48600  0.37493  Biso   1.000  Zr
  O49      1.0000 0.52067  0.65008  0.01656  Biso   1.000  O
  O50      1.0000 0.50909  0.60893  0.26209  Biso   1.000  O
  O51      1.0000 0.49806  0.85644  0.25688  Biso   1.000  O
  O52      1.0000 0.49288  0.89551  0.00643  Biso   1.000  O
  O53      1.0000 0.75936  0.64515  0.26388  Biso   1.000  O
  O54      1.0000 0.76897  0.60762  0.01318  Biso   1.000  O
  O55      1.0000 0.74772  0.85306  0.99797  Biso   1.000  O
  O56      1.0000 0.74680  0.90036  0.24444  Biso   1.000  O
  Zr29     1.0000 0.63026  0.50257  0.63150  Biso   1.000  Zr
  Zr30     1.0000 0.62731  0.75222  0.87827  Biso   1.000  Zr
  Zr31     1.0000 0.87631  0.75016  0.62627  Biso   1.000  Zr
  Zr32     1.0000 0.86616  0.49035  0.87664  Biso   1.000  Zr
  O57      1.0000 0.53120  0.64902  0.51657  Biso   1.000  O
  O58      1.0000 0.50246  0.60258  0.76108  Biso   1.000  O
  O59      1.0000 0.50424  0.85281  0.75791  Biso   1.000  O
  O60      1.0000 0.50228  0.89336  0.50684  Biso   1.000  O
  O61      1.0000 0.75264  0.64166  0.76234  Biso   1.000  O
  O62      1.0000 0.78660  0.59126  0.52572  Biso   1.000  O
  O63      1.0000 0.75856  0.84312  0.49538  Biso   1.000  O
  O64      1.0000 0.75248  0.89232  0.74156  Biso   1.000  O
  Si1      1.0000 0.14841  0.28459  0.09146  Biso   1.000  Si
