data_image0
_cell_length_a       5.07099
_cell_length_b       10.2122
_cell_length_c       10.5822
_cell_angle_alpha    90.663
_cell_angle_beta     80.7238
_cell_angle_gamma    89.3742

_symmetry_space_group_name_H-M    "P 1"
_symmetry_int_tables_number       1

loop_
  _symmetry_equiv_pos_as_xyz
  'x, y, z'

loop_
  _atom_site_label
  _atom_site_occupancy
  _atom_site_fract_x
  _atom_site_fract_y
  _atom_site_fract_z
  _atom_site_thermal_displace_type
  _atom_site_B_iso_or_equiv
  _atom_site_type_symbol
  Si1      1.0000 0.22533  0.02406  0.15388  Biso   1.000  Si
  Zr1      1.0000 0.27049  0.02053  0.64183  Biso   1.000  Zr
  Zr2      1.0000 0.27146  0.52286  0.14486  Biso   1.000  Zr
  Zr3      1.0000 0.28059  0.51913  0.64641  Biso   1.000  Zr
  Zr4      1.0000 0.27343  0.22376  0.38480  Biso   1.000  Zr
  Zr5      1.0000 0.28581  0.22963  0.89142  Biso   1.000  Zr
  Zr6      1.0000 0.27846  0.72403  0.39866  Biso   1.000  Zr
  Zr7      1.0000 0.26203  0.73319  0.89849  Biso   1.000  Zr
  Zr8      1.0000 0.72942  0.26209  0.10290  Biso   1.000  Zr
  Zr9      1.0000 0.72628  0.27089  0.60254  Biso   1.000  Zr
  Zr10     1.0000 0.71135  0.77979  0.11028  Biso   1.000  Zr
  Zr11     1.0000 0.72161  0.76975  0.61166  Biso   1.000  Zr
  Zr12     1.0000 0.72364  0.47491  0.35385  Biso   1.000  Zr
  Zr13     1.0000 0.72673  0.47999  0.85983  Biso   1.000  Zr
  Zr14     1.0000 0.72202  0.97236  0.35541  Biso   1.000  Zr
  Zr15     1.0000 0.72096  0.98724  0.85792  Biso   1.000  Zr
  O1       1.0000 0.09552  0.14194  0.06926  Biso   1.000  O
  O2       1.0000 0.05452  0.14968  0.55899  Biso   1.000  O
  O3       1.0000 0.05248  0.66305  0.07601  Biso   1.000  O
  O4       1.0000 0.06129  0.65683  0.57540  Biso   1.000  O
  O5       1.0000 0.05224  0.08929  0.30357  Biso   1.000  O
  O6       1.0000 0.06538  0.09462  0.81608  Biso   1.000  O
  O7       1.0000 0.06189  0.58661  0.32484  Biso   1.000  O
  O8       1.0000 0.06087  0.59389  0.82442  Biso   1.000  O
  O9       1.0000 0.95001  0.40108  0.18089  Biso   1.000  O
  O10      1.0000 0.94531  0.40434  0.68330  Biso   1.000  O
  O11      1.0000 0.96321  0.91309  0.17670  Biso   1.000  O
  O12      1.0000 0.93775  0.90724  0.68280  Biso   1.000  O
  O13      1.0000 0.94368  0.33971  0.42928  Biso   1.000  O
  O14      1.0000 0.95639  0.34719  0.93705  Biso   1.000  O
  O15      1.0000 0.94082  0.84035  0.43227  Biso   1.000  O
  O16      1.0000 0.91397  0.84251  0.93361  Biso   1.000  O
  O17      1.0000 0.50294  0.10787  0.21229  Biso   1.000  O
  O18      1.0000 0.54886  0.12624  0.72682  Biso   1.000  O
  O19      1.0000 0.55043  0.62240  0.23911  Biso   1.000  O
  O20      1.0000 0.54779  0.62754  0.74253  Biso   1.000  O
  O21      1.0000 0.54960  0.12227  0.47549  Biso   1.000  O
  O22      1.0000 0.59942  0.14936  0.96186  Biso   1.000  O
  O23      1.0000 0.55323  0.61875  0.49193  Biso   1.000  O
  O24      1.0000 0.54311  0.63526  0.99117  Biso   1.000  O
  O25      1.0000 0.46319  0.38506  0.01254  Biso   1.000  O
  O26      1.0000 0.44941  0.37483  0.50968  Biso   1.000  O
  O27      1.0000 0.42614  0.91867  0.03791  Biso   1.000  O
  O28      1.0000 0.45098  0.87435  0.51710  Biso   1.000  O
  O29      1.0000 0.46341  0.36188  0.25863  Biso   1.000  O
  O30      1.0000 0.45844  0.37331  0.76181  Biso   1.000  O
  O31      1.0000 0.46244  0.86280  0.27110  Biso   1.000  O
  O32      1.0000 0.44567  0.87377  0.77084  Biso   1.000  O
