data_image0
_cell_length_a       10.0985
_cell_length_b       10.3483
_cell_length_c       10.5641
_cell_angle_alpha    89.684
_cell_angle_beta     90.1829
_cell_angle_gamma    90.1492

_symmetry_space_group_name_H-M    "P 1"
_symmetry_int_tables_number       1

loop_
  _symmetry_equiv_pos_as_xyz
  'x, y, z'

loop_
  _atom_site_label
  _atom_site_occupancy
  _atom_site_fract_x
  _atom_site_fract_y
  _atom_site_fract_z
  _atom_site_thermal_displace_type
  _atom_site_B_iso_or_equiv
  _atom_site_type_symbol
  Zr1      1.0000 0.13807  0.02016  0.17130  Biso   1.000  Zr
  Zr2      1.0000 0.13453  0.22709  0.42520  Biso   1.000  Zr
  Zr3      1.0000 0.34425  0.26921  0.18136  Biso   1.000  Zr
  Zr4      1.0000 0.36124  0.48009  0.42319  Biso   1.000  Zr
  Zr5      1.0000 0.64868  0.02368  0.06901  Biso   1.000  Zr
  Zr6      1.0000 0.63921  0.22994  0.33570  Biso   1.000  Zr
  Zr7      1.0000 0.85697  0.26876  0.08014  Biso   1.000  Zr
  Zr8      1.0000 0.86228  0.47910  0.33153  Biso   1.000  Zr
  O1       1.0000 0.03475  0.16326  0.08450  Biso   1.000  O
  O2       1.0000 0.03210  0.08406  0.33490  Biso   1.000  O
  O3       1.0000 0.48815  0.39760  0.07886  Biso   1.000  O
  O4       1.0000 0.46361  0.33623  0.33229  Biso   1.000  O
  O5       1.0000 0.27219  0.12419  0.29743  Biso   1.000  O
  O6       1.0000 0.27711  0.12572  0.04513  Biso   1.000  O
  O7       1.0000 0.21818  0.37514  0.29944  Biso   1.000  O
  O8       1.0000 0.23143  0.37884  0.04836  Biso   1.000  O
  O9       1.0000 0.52234  0.17008  0.16804  Biso   1.000  O
  O10      1.0000 0.53119  0.08541  0.41602  Biso   1.000  O
  O11      1.0000 0.96471  0.41659  0.17050  Biso   1.000  O
  O12      1.0000 0.96625  0.33554  0.42117  Biso   1.000  O
  O13      1.0000 0.77426  0.12457  0.45770  Biso   1.000  O
  O14      1.0000 0.77596  0.12587  0.21439  Biso   1.000  O
  O15      1.0000 0.72332  0.37283  0.45752  Biso   1.000  O
  O16      1.0000 0.71734  0.38626  0.21146  Biso   1.000  O
  Zr9      1.0000 0.14105  0.01996  0.67245  Biso   1.000  Zr
  Zr10     1.0000 0.13695  0.22684  0.92240  Biso   1.000  Zr
  Zr11     1.0000 0.35904  0.27191  0.67159  Biso   1.000  Zr
  Zr12     1.0000 0.36115  0.48120  0.91847  Biso   1.000  Zr
  Zr13     1.0000 0.63877  0.01995  0.58000  Biso   1.000  Zr
  Zr14     1.0000 0.63546  0.22526  0.82018  Biso   1.000  Zr
  Zr15     1.0000 0.86073  0.27004  0.58200  Biso   1.000  Zr
  Zr16     1.0000 0.86264  0.47814  0.83034  Biso   1.000  Zr
  O17      1.0000 0.03182  0.16402  0.58546  Biso   1.000  O
  O18      1.0000 0.03634  0.08430  0.83170  Biso   1.000  O
  O19      1.0000 0.46810  0.41428  0.58123  Biso   1.000  O
  O20      1.0000 0.46653  0.34073  0.82827  Biso   1.000  O
  O21      1.0000 0.27797  0.12432  0.79573  Biso   1.000  O
  O22      1.0000 0.27431  0.12439  0.54518  Biso   1.000  O
  O23      1.0000 0.22187  0.37338  0.79756  Biso   1.000  O
  O24      1.0000 0.22394  0.37527  0.54729  Biso   1.000  O
  O25      1.0000 0.52915  0.16490  0.66070  Biso   1.000  O
  O26      1.0000 0.54164  0.05925  0.89584  Biso   1.000  O
  O27      1.0000 0.96811  0.41350  0.66985  Biso   1.000  O
  O28      1.0000 0.96577  0.33401  0.91879  Biso   1.000  O
  O29      1.0000 0.79443  0.11607  0.94882  Biso   1.000  O
  O30      1.0000 0.77722  0.12107  0.70109  Biso   1.000  O
  O31      1.0000 0.71738  0.38174  0.95801  Biso   1.000  O
  O32      1.0000 0.72614  0.37556  0.70554  Biso   1.000  O
  Zr17     1.0000 0.13599  0.52308  0.17265  Biso   1.000  Zr
  Zr18     1.0000 0.13877  0.72895  0.42216  Biso   1.000  Zr
  Zr19     1.0000 0.36217  0.77483  0.17201  Biso   1.000  Zr
  Zr20     1.0000 0.36096  0.97726  0.42348  Biso   1.000  Zr
  Zr21     1.0000 0.64883  0.53781  0.08211  Biso   1.000  Zr
  Zr22     1.0000 0.63988  0.73166  0.33076  Biso   1.000  Zr
  Zr23     1.0000 0.86542  0.77570  0.07954  Biso   1.000  Zr
  Zr24     1.0000 0.85940  0.97954  0.33047  Biso   1.000  Zr
  O33      1.0000 0.03429  0.66577  0.08323  Biso   1.000  O
  O34      1.0000 0.03240  0.58623  0.33385  Biso   1.000  O
  O35      1.0000 0.46976  0.91989  0.08549  Biso   1.000  O
  O36      1.0000 0.46852  0.83611  0.33409  Biso   1.000  O
  O37      1.0000 0.27519  0.62486  0.29519  Biso   1.000  O
  O38      1.0000 0.27872  0.62524  0.04583  Biso   1.000  O
  O39      1.0000 0.22590  0.87462  0.29652  Biso   1.000  O
  O40      1.0000 0.22521  0.87456  0.04685  Biso   1.000  O
  O41      1.0000 0.53223  0.66537  0.17019  Biso   1.000  O
  O42      1.0000 0.53223  0.58710  0.41832  Biso   1.000  O
  O43      1.0000 0.96870  0.91547  0.16984  Biso   1.000  O
  O44      1.0000 0.96755  0.83365  0.41774  Biso   1.000  O
  O45      1.0000 0.77513  0.62402  0.45613  Biso   1.000  O
  O46      1.0000 0.78080  0.63286  0.20715  Biso   1.000  O
  O47      1.0000 0.72431  0.87468  0.45599  Biso   1.000  O
  O48      1.0000 0.72610  0.87756  0.20405  Biso   1.000  O
  Zr25     1.0000 0.13783  0.51995  0.67227  Biso   1.000  Zr
  Zr26     1.0000 0.14107  0.72867  0.92218  Biso   1.000  Zr
  Zr27     1.0000 0.36156  0.76917  0.67206  Biso   1.000  Zr
  Zr28     1.0000 0.36483  0.97757  0.92060  Biso   1.000  Zr
  Zr29     1.0000 0.63897  0.52100  0.57973  Biso   1.000  Zr
  Zr30     1.0000 0.63890  0.72880  0.82793  Biso   1.000  Zr
  Zr31     1.0000 0.86271  0.77031  0.57936  Biso   1.000  Zr
  Zr32     1.0000 0.86371  0.97671  0.82680  Biso   1.000  Zr
  O49      1.0000 0.03231  0.66290  0.58309  Biso   1.000  O
  O50      1.0000 0.03309  0.58580  0.83373  Biso   1.000  O
  O51      1.0000 0.46774  0.91269  0.58351  Biso   1.000  O
  O52      1.0000 0.46370  0.82526  0.83554  Biso   1.000  O
  O53      1.0000 0.27611  0.62168  0.79528  Biso   1.000  O
  O54      1.0000 0.27512  0.62477  0.54600  Biso   1.000  O
  O55      1.0000 0.22570  0.87305  0.79519  Biso   1.000  O
  O56      1.0000 0.22489  0.87426  0.54579  Biso   1.000  O
  O57      1.0000 0.53211  0.66213  0.66853  Biso   1.000  O
  O58      1.0000 0.53279  0.58707  0.92312  Biso   1.000  O
  O59      1.0000 0.97068  0.91257  0.66589  Biso   1.000  O
  O60      1.0000 0.97232  0.83675  0.91883  Biso   1.000  O
  O61      1.0000 0.77864  0.62862  0.95495  Biso   1.000  O
  O62      1.0000 0.77593  0.62477  0.70583  Biso   1.000  O
  O63      1.0000 0.72737  0.87188  0.95511  Biso   1.000  O
  O64      1.0000 0.72469  0.87342  0.70443  Biso   1.000  O
  Si1      1.0000 0.59317  0.27168  0.04905  Biso   1.000  Si
