data_image0
_cell_length_a       10.0965
_cell_length_b       10.3032
_cell_length_c       5.25037
_cell_angle_alpha    89.9444
_cell_angle_beta     90.1905
_cell_angle_gamma    89.8828

_symmetry_space_group_name_H-M    "P 1"
_symmetry_int_tables_number       1

loop_
  _symmetry_equiv_pos_as_xyz
  'x, y, z'

loop_
  _atom_site_label
  _atom_site_occupancy
  _atom_site_fract_x
  _atom_site_fract_y
  _atom_site_fract_z
  _atom_site_thermal_displace_type
  _atom_site_B_iso_or_equiv
  _atom_site_type_symbol
  Sn1      1.0000 0.13583  0.01782  0.34510  Biso   1.000  Sn
  Zr1      1.0000 0.13910  0.52131  0.34150  Biso   1.000  Zr
  Zr2      1.0000 0.13993  0.22853  0.84016  Biso   1.000  Zr
  Zr3      1.0000 0.13770  0.72979  0.84098  Biso   1.000  Zr
  Zr4      1.0000 0.36083  0.27119  0.33995  Biso   1.000  Zr
  Zr5      1.0000 0.36177  0.77138  0.33995  Biso   1.000  Zr
  Zr6      1.0000 0.36135  0.47951  0.84143  Biso   1.000  Zr
  Zr7      1.0000 0.36198  0.98038  0.84045  Biso   1.000  Zr
  Zr8      1.0000 0.63863  0.02130  0.15953  Biso   1.000  Zr
  Zr9      1.0000 0.63933  0.52051  0.15835  Biso   1.000  Zr
  Zr10     1.0000 0.63883  0.22985  0.65854  Biso   1.000  Zr
  Zr11     1.0000 0.63877  0.72855  0.65867  Biso   1.000  Zr
  Zr12     1.0000 0.86309  0.26967  0.16088  Biso   1.000  Zr
  Zr13     1.0000 0.86109  0.77062  0.15886  Biso   1.000  Zr
  Zr14     1.0000 0.86203  0.47844  0.65967  Biso   1.000  Zr
  Zr15     1.0000 0.85936  0.97956  0.66169  Biso   1.000  Zr
  O1       1.0000 0.03575  0.16465  0.16709  Biso   1.000  O
  O2       1.0000 0.03321  0.66591  0.16720  Biso   1.000  O
  O3       1.0000 0.03246  0.08350  0.66826  Biso   1.000  O
  O4       1.0000 0.03345  0.58370  0.66851  Biso   1.000  O
  O5       1.0000 0.46715  0.41674  0.16864  Biso   1.000  O
  O6       1.0000 0.46697  0.91664  0.16896  Biso   1.000  O
  O7       1.0000 0.46655  0.33345  0.66891  Biso   1.000  O
  O8       1.0000 0.46518  0.83229  0.67036  Biso   1.000  O
  O9       1.0000 0.27577  0.12321  0.58488  Biso   1.000  O
  O10      1.0000 0.27536  0.62523  0.58834  Biso   1.000  O
  O11      1.0000 0.27728  0.12675  0.08579  Biso   1.000  O
  O12      1.0000 0.27601  0.62738  0.08771  Biso   1.000  O
  O13      1.0000 0.22489  0.37445  0.58857  Biso   1.000  O
  O14      1.0000 0.22322  0.87552  0.58393  Biso   1.000  O
  O15      1.0000 0.22459  0.37710  0.08810  Biso   1.000  O
  O16      1.0000 0.22243  0.87820  0.08814  Biso   1.000  O
  O17      1.0000 0.53370  0.16718  0.33077  Biso   1.000  O
  O18      1.0000 0.53369  0.66648  0.33095  Biso   1.000  O
  O19      1.0000 0.53362  0.08372  0.83075  Biso   1.000  O
  O20      1.0000 0.53352  0.58325  0.83095  Biso   1.000  O
  O21      1.0000 0.96774  0.41549  0.33400  Biso   1.000  O
  O22      1.0000 0.96375  0.91665  0.32958  Biso   1.000  O
  O23      1.0000 0.96743  0.33298  0.83536  Biso   1.000  O
  O24      1.0000 0.96561  0.83310  0.83061  Biso   1.000  O
  O25      1.0000 0.77562  0.12411  0.91245  Biso   1.000  O
  O26      1.0000 0.77589  0.62370  0.91087  Biso   1.000  O
  O27      1.0000 0.77549  0.12589  0.41226  Biso   1.000  O
  O28      1.0000 0.77596  0.62537  0.41147  Biso   1.000  O
  O29      1.0000 0.72520  0.37379  0.91257  Biso   1.000  O
  O30      1.0000 0.72308  0.87379  0.91287  Biso   1.000  O
  O31      1.0000 0.72530  0.37549  0.41199  Biso   1.000  O
  O32      1.0000 0.72451  0.87587  0.41345  Biso   1.000  O
