data_image0
_cell_length_a       10.0971
_cell_length_b       5.15099
_cell_length_c       10.5019
_cell_angle_alpha    89.9623
_cell_angle_beta     90.2132
_cell_angle_gamma    89.8762

_symmetry_space_group_name_H-M    "P 1"
_symmetry_int_tables_number       1

loop_
  _symmetry_equiv_pos_as_xyz
  'x, y, z'

loop_
  _atom_site_label
  _atom_site_occupancy
  _atom_site_fract_x
  _atom_site_fract_y
  _atom_site_fract_z
  _atom_site_thermal_displace_type
  _atom_site_B_iso_or_equiv
  _atom_site_type_symbol
  Sn1      1.0000 0.13566  0.03605  0.17341  Biso   1.000  Sn
  Zr1      1.0000 0.13897  0.04205  0.67026  Biso   1.000  Zr
  Zr2      1.0000 0.13745  0.45900  0.42036  Biso   1.000  Zr
  Zr3      1.0000 0.14021  0.45775  0.92018  Biso   1.000  Zr
  Zr4      1.0000 0.36096  0.54253  0.16938  Biso   1.000  Zr
  Zr5      1.0000 0.36166  0.54291  0.67042  Biso   1.000  Zr
  Zr6      1.0000 0.36129  0.95964  0.42067  Biso   1.000  Zr
  Zr7      1.0000 0.36193  0.96034  0.92025  Biso   1.000  Zr
  Zr8      1.0000 0.63934  0.04127  0.07883  Biso   1.000  Zr
  Zr9      1.0000 0.63864  0.04218  0.58003  Biso   1.000  Zr
  Zr10     1.0000 0.63790  0.45785  0.32902  Biso   1.000  Zr
  Zr11     1.0000 0.63959  0.45871  0.82953  Biso   1.000  Zr
  Zr12     1.0000 0.86311  0.53826  0.08014  Biso   1.000  Zr
  Zr13     1.0000 0.86108  0.54194  0.57990  Biso   1.000  Zr
  Zr14     1.0000 0.85858  0.95847  0.33070  Biso   1.000  Zr
  Zr15     1.0000 0.86268  0.95721  0.83019  Biso   1.000  Zr
  O1       1.0000 0.03619  0.32859  0.08369  Biso   1.000  O
  O2       1.0000 0.03307  0.33218  0.58356  Biso   1.000  O
  O3       1.0000 0.03149  0.16723  0.33514  Biso   1.000  O
  O4       1.0000 0.03406  0.16799  0.83328  Biso   1.000  O
  O5       1.0000 0.46753  0.83176  0.08358  Biso   1.000  O
  O6       1.0000 0.46656  0.83505  0.58508  Biso   1.000  O
  O7       1.0000 0.46432  0.66369  0.33526  Biso   1.000  O
  O8       1.0000 0.46736  0.66747  0.83428  Biso   1.000  O
  O9       1.0000 0.27452  0.24730  0.29279  Biso   1.000  O
  O10      1.0000 0.27640  0.24867  0.79308  Biso   1.000  O
  O11      1.0000 0.27821  0.25741  0.04228  Biso   1.000  O
  O12      1.0000 0.27574  0.25278  0.54340  Biso   1.000  O
  O13      1.0000 0.22281  0.75079  0.29241  Biso   1.000  O
  O14      1.0000 0.22526  0.74874  0.79414  Biso   1.000  O
  O15      1.0000 0.22250  0.76015  0.04459  Biso   1.000  O
  O16      1.0000 0.22437  0.75214  0.54358  Biso   1.000  O
  O17      1.0000 0.53352  0.33286  0.16542  Biso   1.000  O
  O18      1.0000 0.53388  0.33452  0.66525  Biso   1.000  O
  O19      1.0000 0.53336  0.16561  0.41525  Biso   1.000  O
  O20      1.0000 0.53398  0.16772  0.91532  Biso   1.000  O
  O21      1.0000 0.96406  0.83235  0.16580  Biso   1.000  O
  O22      1.0000 0.96751  0.83098  0.66666  Biso   1.000  O
  O23      1.0000 0.96564  0.66822  0.41660  Biso   1.000  O
  O24      1.0000 0.96750  0.66474  0.91708  Biso   1.000  O
  O25      1.0000 0.77635  0.24692  0.95572  Biso   1.000  O
  O26      1.0000 0.77521  0.24840  0.45603  Biso   1.000  O
  O27      1.0000 0.77515  0.25092  0.20590  Biso   1.000  O
  O28      1.0000 0.77633  0.25139  0.70599  Biso   1.000  O
  O29      1.0000 0.72537  0.74702  0.95631  Biso   1.000  O
  O30      1.0000 0.72290  0.74771  0.45650  Biso   1.000  O
  O31      1.0000 0.72481  0.75032  0.20642  Biso   1.000  O
  O32      1.0000 0.72499  0.75221  0.70633  Biso   1.000  O
