data_image0
_cell_length_a       10.1565
_cell_length_b       10.333
_cell_length_c       10.5266
_cell_angle_alpha    89.9768
_cell_angle_beta     90.0594
_cell_angle_gamma    90.1057

_symmetry_space_group_name_H-M    "P 1"
_symmetry_int_tables_number       1

loop_
  _symmetry_equiv_pos_as_xyz
  'x, y, z'

loop_
  _atom_site_label
  _atom_site_occupancy
  _atom_site_fract_x
  _atom_site_fract_y
  _atom_site_fract_z
  _atom_site_thermal_displace_type
  _atom_site_B_iso_or_equiv
  _atom_site_type_symbol
  Sr1      1.0000 0.13588  0.01108  0.16574  Biso   1.000  Sr
  Zr1      1.0000 0.13968  0.02084  0.67225  Biso   1.000  Zr
  Zr2      1.0000 0.13992  0.52016  0.17130  Biso   1.000  Zr
  Zr3      1.0000 0.13951  0.52088  0.67160  Biso   1.000  Zr
  Zr4      1.0000 0.13955  0.22676  0.42202  Biso   1.000  Zr
  Zr5      1.0000 0.13879  0.23118  0.92143  Biso   1.000  Zr
  Zr6      1.0000 0.14130  0.72823  0.42167  Biso   1.000  Zr
  Zr7      1.0000 0.14199  0.72866  0.92095  Biso   1.000  Zr
  Zr8      1.0000 0.35759  0.26697  0.17094  Biso   1.000  Zr
  Zr9      1.0000 0.36064  0.27018  0.67168  Biso   1.000  Zr
  Zr10     1.0000 0.36503  0.76796  0.17059  Biso   1.000  Zr
  Zr11     1.0000 0.36059  0.77137  0.67115  Biso   1.000  Zr
  Zr12     1.0000 0.36003  0.47728  0.42054  Biso   1.000  Zr
  Zr13     1.0000 0.36081  0.47774  0.92219  Biso   1.000  Zr
  Zr14     1.0000 0.36035  0.97977  0.42099  Biso   1.000  Zr
  Zr15     1.0000 0.36319  0.98038  0.92055  Biso   1.000  Zr
  Zr16     1.0000 0.64058  0.02148  0.07986  Biso   1.000  Zr
  Zr17     1.0000 0.63831  0.02078  0.58000  Biso   1.000  Zr
  Zr18     1.0000 0.63751  0.51820  0.07796  Biso   1.000  Zr
  Zr19     1.0000 0.63833  0.52058  0.57757  Biso   1.000  Zr
  Zr20     1.0000 0.63746  0.23031  0.32850  Biso   1.000  Zr
  Zr21     1.0000 0.63936  0.22897  0.82844  Biso   1.000  Zr
  Zr22     1.0000 0.64035  0.72810  0.32917  Biso   1.000  Zr
  Zr23     1.0000 0.63772  0.72895  0.82735  Biso   1.000  Zr
  Zr24     1.0000 0.86073  0.27223  0.07629  Biso   1.000  Zr
  Zr25     1.0000 0.86080  0.27137  0.57850  Biso   1.000  Zr
  Zr26     1.0000 0.85794  0.76671  0.07674  Biso   1.000  Zr
  Zr27     1.0000 0.86208  0.77106  0.57892  Biso   1.000  Zr
  Zr28     1.0000 0.86109  0.47949  0.32820  Biso   1.000  Zr
  Zr29     1.0000 0.85996  0.48018  0.82673  Biso   1.000  Zr
  Zr30     1.0000 0.85731  0.98168  0.33332  Biso   1.000  Zr
  Zr31     1.0000 0.86119  0.97888  0.83013  Biso   1.000  Zr
  O1       1.0000 0.03242  0.18755  0.08126  Biso   1.000  O
  O2       1.0000 0.03366  0.17064  0.59170  Biso   1.000  O
  O3       1.0000 0.03493  0.67012  0.08620  Biso   1.000  O
  O4       1.0000 0.03322  0.66651  0.58593  Biso   1.000  O
  O5       1.0000 0.02232  0.08662  0.35311  Biso   1.000  O
  O6       1.0000 0.03390  0.08164  0.83791  Biso   1.000  O
  O7       1.0000 0.03295  0.58471  0.33526  Biso   1.000  O
  O8       1.0000 0.03263  0.58326  0.83398  Biso   1.000  O
  O9       1.0000 0.46809  0.41071  0.08132  Biso   1.000  O
  O10      1.0000 0.46894  0.41229  0.58141  Biso   1.000  O
  O11      1.0000 0.47221  0.91445  0.08279  Biso   1.000  O
  O12      1.0000 0.46880  0.91250  0.58159  Biso   1.000  O
  O13      1.0000 0.46883  0.33859  0.33129  Biso   1.000  O
  O14      1.0000 0.46882  0.33582  0.83131  Biso   1.000  O
  O15      1.0000 0.47557  0.83959  0.33072  Biso   1.000  O
  O16      1.0000 0.46999  0.83731  0.82950  Biso   1.000  O
  O17      1.0000 0.28281  0.12983  0.30529  Biso   1.000  O
  O18      1.0000 0.27450  0.12429  0.79273  Biso   1.000  O
  O19      1.0000 0.27690  0.61934  0.29477  Biso   1.000  O
  O20      1.0000 0.27552  0.62468  0.79534  Biso   1.000  O
  O21      1.0000 0.28714  0.13438  0.03427  Biso   1.000  O
  O22      1.0000 0.27443  0.12431  0.54767  Biso   1.000  O
  O23      1.0000 0.27489  0.61961  0.04638  Biso   1.000  O
  O24      1.0000 0.27516  0.62507  0.54540  Biso   1.000  O
  O25      1.0000 0.22243  0.37308  0.29474  Biso   1.000  O
  O26      1.0000 0.22572  0.37523  0.79459  Biso   1.000  O
  O27      1.0000 0.23761  0.86133  0.30274  Biso   1.000  O
  O28      1.0000 0.22525  0.87441  0.79267  Biso   1.000  O
  O29      1.0000 0.22341  0.37750  0.04511  Biso   1.000  O
  O30      1.0000 0.22537  0.37567  0.54558  Biso   1.000  O
  O31      1.0000 0.24396  0.86064  0.03396  Biso   1.000  O
  O32      1.0000 0.22454  0.87607  0.54669  Biso   1.000  O
  O33      1.0000 0.53209  0.16405  0.16756  Biso   1.000  O
  O34      1.0000 0.53147  0.16333  0.66732  Biso   1.000  O
  O35      1.0000 0.53261  0.65978  0.16900  Biso   1.000  O
  O36      1.0000 0.53075  0.66233  0.66749  Biso   1.000  O
  O37      1.0000 0.53272  0.08551  0.41792  Biso   1.000  O
  O38      1.0000 0.53640  0.08433  0.91553  Biso   1.000  O
  O39      1.0000 0.53044  0.58707  0.41848  Biso   1.000  O
  O40      1.0000 0.52960  0.58725  0.91844  Biso   1.000  O
  O41      1.0000 0.96358  0.42285  0.16299  Biso   1.000  O
  O42      1.0000 0.96657  0.41899  0.66239  Biso   1.000  O
  O43      1.0000 0.93473  0.91674  0.16531  Biso   1.000  O
  O44      1.0000 0.96679  0.91649  0.66616  Biso   1.000  O
  O45      1.0000 0.96746  0.33622  0.41616  Biso   1.000  O
  O46      1.0000 0.96439  0.33569  0.90790  Biso   1.000  O
  O47      1.0000 0.96883  0.83413  0.41564  Biso   1.000  O
  O48      1.0000 0.96950  0.83392  0.91588  Biso   1.000  O
  O49      1.0000 0.77685  0.12445  0.95535  Biso   1.000  O
  O50      1.0000 0.77108  0.12703  0.45818  Biso   1.000  O
  O51      1.0000 0.77237  0.62205  0.95243  Biso   1.000  O
  O52      1.0000 0.77554  0.62439  0.45466  Biso   1.000  O
  O53      1.0000 0.77392  0.12811  0.20736  Biso   1.000  O
  O54      1.0000 0.77529  0.12552  0.70616  Biso   1.000  O
  O55      1.0000 0.77505  0.62589  0.20431  Biso   1.000  O
  O56      1.0000 0.77401  0.62644  0.70310  Biso   1.000  O
  O57      1.0000 0.72284  0.37480  0.95262  Biso   1.000  O
  O58      1.0000 0.72481  0.37589  0.45384  Biso   1.000  O
  O59      1.0000 0.72538  0.87336  0.95409  Biso   1.000  O
  O60      1.0000 0.72619  0.87441  0.45728  Biso   1.000  O
  O61      1.0000 0.72388  0.37692  0.20488  Biso   1.000  O
  O62      1.0000 0.72512  0.37532  0.70298  Biso   1.000  O
  O63      1.0000 0.71157  0.87537  0.20691  Biso   1.000  O
  O64      1.0000 0.72566  0.87520  0.70523  Biso   1.000  O
