data_image0
_cell_length_a       10.1912
_cell_length_b       5.16962
_cell_length_c       10.1912
_cell_angle_alpha    90.0001
_cell_angle_beta     90
_cell_angle_gamma    90

_symmetry_space_group_name_H-M    "P 1"
_symmetry_int_tables_number       1

loop_
  _symmetry_equiv_pos_as_xyz
  'x, y, z'

loop_
  _atom_site_label
  _atom_site_occupancy
  _atom_site_fract_x
  _atom_site_fract_y
  _atom_site_fract_z
  _atom_site_thermal_displace_type
  _atom_site_B_iso_or_equiv
  _atom_site_type_symbol
  Zr1      1.0000 0.12540  0.00015  0.12540  Biso   1.000  Zr
  Zr2      1.0000 0.12540  0.50015  0.40011  Biso   1.000  Zr
  Zr3      1.0000 0.40011  0.50015  0.12540  Biso   1.000  Zr
  Zr4      1.0000 0.37283  0.00608  0.37283  Biso   1.000  Zr
  O1       1.0000 0.98299  0.29932  0.98299  Biso   1.000  O
  O2       1.0000 0.00215  0.19914  0.24863  Biso   1.000  O
  O3       1.0000 0.98300  0.70099  0.26780  Biso   1.000  O
  O4       1.0000 0.00215  0.80117  0.00216  Biso   1.000  O
  O5       1.0000 0.26779  0.29931  0.26780  Biso   1.000  O
  O6       1.0000 0.24864  0.19914  0.00216  Biso   1.000  O
  O7       1.0000 0.26780  0.70099  0.98300  Biso   1.000  O
  O8       1.0000 0.24864  0.80116  0.24864  Biso   1.000  O
  Zr5      1.0000 0.12540  0.00014  0.62539  Biso   1.000  Zr
  Zr6      1.0000 0.12540  0.50015  0.85068  Biso   1.000  Zr
  Zr7      1.0000 0.38036  0.50015  0.62540  Biso   1.000  Zr
  Zr8      1.0000 0.37283  0.99423  0.87796  Biso   1.000  Zr
  O9       1.0000 0.98954  0.28067  0.49747  Biso   1.000  O
  O10      1.0000 0.00618  0.21593  0.74322  Biso   1.000  O
  O11      1.0000 0.98954  0.71963  0.75332  Biso   1.000  O
  O12      1.0000 0.00618  0.78436  0.50757  Biso   1.000  O
  O13      1.0000 0.26125  0.28067  0.75332  Biso   1.000  O
  O14      1.0000 0.24461  0.21594  0.50757  Biso   1.000  O
  O15      1.0000 0.26126  0.71962  0.49747  Biso   1.000  O
  O16      1.0000 0.24461  0.78437  0.74322  Biso   1.000  O
  Zr9      1.0000 0.62540  0.00014  0.12540  Biso   1.000  Zr
  Zr10     1.0000 0.62540  0.50015  0.38036  Biso   1.000  Zr
  Zr11     1.0000 0.85068  0.50015  0.12540  Biso   1.000  Zr
  Zr12     1.0000 0.87796  0.99423  0.37283  Biso   1.000  Zr
  O17      1.0000 0.49747  0.28067  0.98954  Biso   1.000  O
  O18      1.0000 0.50757  0.21594  0.24461  Biso   1.000  O
  O19      1.0000 0.49747  0.71962  0.26126  Biso   1.000  O
  O20      1.0000 0.50756  0.78437  0.00618  Biso   1.000  O
  O21      1.0000 0.75332  0.28067  0.26125  Biso   1.000  O
  O22      1.0000 0.74322  0.21594  0.00618  Biso   1.000  O
  O23      1.0000 0.75332  0.71962  0.98953  Biso   1.000  O
  O24      1.0000 0.74323  0.78436  0.24461  Biso   1.000  O
  Zr13     1.0000 0.62540  0.00014  0.62540  Biso   1.000  Zr
  Zr14     1.0000 0.62539  0.50015  0.87044  Biso   1.000  Zr
  Zr15     1.0000 0.87044  0.50015  0.62540  Biso   1.000  Zr
  Zr16     1.0000 0.87797  0.00608  0.87796  Biso   1.000  Zr
  O25      1.0000 0.49241  0.29324  0.49242  Biso   1.000  O
  O26      1.0000 0.50642  0.21122  0.74437  Biso   1.000  O
  O27      1.0000 0.49241  0.70706  0.75838  Biso   1.000  O
  O28      1.0000 0.50641  0.78908  0.50642  Biso   1.000  O
  O29      1.0000 0.75838  0.29324  0.75838  Biso   1.000  O
  O30      1.0000 0.74437  0.21122  0.50642  Biso   1.000  O
  O31      1.0000 0.75838  0.70706  0.49241  Biso   1.000  O
  O32      1.0000 0.74438  0.78907  0.74437  Biso   1.000  O
  Sr1      1.0000 0.12540  0.50015  0.12540  Biso   1.000  Sr
