data_image0
_cell_length_a       10.26
_cell_length_b       10.4347
_cell_length_c       5.25914
_cell_angle_alpha    90.0334
_cell_angle_beta     80.6124
_cell_angle_gamma    90.3162

_symmetry_space_group_name_H-M    "P 1"
_symmetry_int_tables_number       1

loop_
  _symmetry_equiv_pos_as_xyz
  'x, y, z'

loop_
  _atom_site_label
  _atom_site_occupancy
  _atom_site_fract_x
  _atom_site_fract_y
  _atom_site_fract_z
  _atom_site_thermal_displace_type
  _atom_site_B_iso_or_equiv
  _atom_site_type_symbol
  Sr1      1.0000 0.13115  0.01193  0.28289  Biso   1.000  Sr
  Zr1      1.0000 0.14107  0.52020  0.28703  Biso   1.000  Zr
  Zr2      1.0000 0.64117  0.02177  0.29512  Biso   1.000  Zr
  Zr3      1.0000 0.63766  0.51758  0.29076  Biso   1.000  Zr
  Zr4      1.0000 0.13808  0.23058  0.79095  Biso   1.000  Zr
  Zr5      1.0000 0.14463  0.72701  0.78585  Biso   1.000  Zr
  Zr6      1.0000 0.63836  0.23008  0.79354  Biso   1.000  Zr
  Zr7      1.0000 0.63835  0.72573  0.79096  Biso   1.000  Zr
  Zr8      1.0000 0.35851  0.26702  0.20829  Biso   1.000  Zr
  Zr9      1.0000 0.36428  0.76949  0.20790  Biso   1.000  Zr
  Zr10     1.0000 0.85946  0.27310  0.20844  Biso   1.000  Zr
  Zr11     1.0000 0.86031  0.76449  0.20385  Biso   1.000  Zr
  Zr12     1.0000 0.36037  0.47607  0.70632  Biso   1.000  Zr
  Zr13     1.0000 0.36165  0.97993  0.70358  Biso   1.000  Zr
  Zr14     1.0000 0.86138  0.47976  0.70679  Biso   1.000  Zr
  Zr15     1.0000 0.85740  0.97949  0.72740  Biso   1.000  Zr
  O1       1.0000 0.03853  0.20152  0.17126  Biso   1.000  O
  O2       1.0000 0.04031  0.67564  0.16785  Biso   1.000  O
  O3       1.0000 0.53481  0.16752  0.16032  Biso   1.000  O
  O4       1.0000 0.53598  0.66496  0.15666  Biso   1.000  O
  O5       1.0000 0.02807  0.07797  0.71589  Biso   1.000  O
  O6       1.0000 0.03706  0.57847  0.66209  Biso   1.000  O
  O7       1.0000 0.53764  0.08209  0.65927  Biso   1.000  O
  O8       1.0000 0.53340  0.58133  0.65572  Biso   1.000  O
  O9       1.0000 0.46546  0.41480  0.34081  Biso   1.000  O
  O10      1.0000 0.46909  0.91794  0.33852  Biso   1.000  O
  O11      1.0000 0.95891  0.43145  0.32603  Biso   1.000  O
  O12      1.0000 0.92580  0.92295  0.35004  Biso   1.000  O
  O13      1.0000 0.46722  0.33340  0.84104  Biso   1.000  O
  O14      1.0000 0.47481  0.83639  0.84058  Biso   1.000  O
  O15      1.0000 0.96025  0.33070  0.82352  Biso   1.000  O
  O16      1.0000 0.96708  0.82791  0.83685  Biso   1.000  O
  O17      1.0000 0.28301  0.13391  0.49278  Biso   1.000  O
  O18      1.0000 0.27761  0.62328  0.47588  Biso   1.000  O
  O19      1.0000 0.77564  0.13205  0.48964  Biso   1.000  O
  O20      1.0000 0.77391  0.62923  0.48015  Biso   1.000  O
  O21      1.0000 0.28462  0.12815  0.96318  Biso   1.000  O
  O22      1.0000 0.27671  0.61712  0.97835  Biso   1.000  O
  O23      1.0000 0.77253  0.12272  0.99031  Biso   1.000  O
  O24      1.0000 0.77465  0.61875  0.97920  Biso   1.000  O
  O25      1.0000 0.22621  0.38013  0.01409  Biso   1.000  O
  O26      1.0000 0.24148  0.86531  0.99380  Biso   1.000  O
  O27      1.0000 0.72315  0.37974  0.01746  Biso   1.000  O
  O28      1.0000 0.72562  0.87690  0.02337  Biso   1.000  O
  O29      1.0000 0.22205  0.37196  0.51374  Biso   1.000  O
  O30      1.0000 0.23728  0.85889  0.51918  Biso   1.000  O
  O31      1.0000 0.72387  0.37263  0.51869  Biso   1.000  O
  O32      1.0000 0.71211  0.87150  0.53200  Biso   1.000  O
