data_image0
_cell_length_a       5.15692
_cell_length_b       10.3385
_cell_length_c       10.6826
_cell_angle_alpha    89.5399
_cell_angle_beta     79.7203
_cell_angle_gamma    89.9753

_symmetry_space_group_name_H-M    "P 1"
_symmetry_int_tables_number       1

loop_
  _symmetry_equiv_pos_as_xyz
  'x, y, z'

loop_
  _atom_site_label
  _atom_site_occupancy
  _atom_site_fract_x
  _atom_site_fract_y
  _atom_site_fract_z
  _atom_site_thermal_displace_type
  _atom_site_B_iso_or_equiv
  _atom_site_type_symbol
  Zr1      1.0000 0.27542  0.01977  0.14399  Biso   1.000  Zr
  Zr2      1.0000 0.26633  0.23544  0.40642  Biso   1.000  Zr
  Zr3      1.0000 0.71681  0.26693  0.08833  Biso   1.000  Zr
  Zr4      1.0000 0.72080  0.49755  0.35884  Biso   1.000  Zr
  O1       1.0000 0.05760  0.15371  0.06810  Biso   1.000  O
  O2       1.0000 0.05772  0.08467  0.32759  Biso   1.000  O
  O3       1.0000 0.96665  0.38876  0.19315  Biso   1.000  O
  O4       1.0000 0.95814  0.36784  0.44188  Biso   1.000  O
  O5       1.0000 0.55338  0.11928  0.23198  Biso   1.000  O
  O6       1.0000 0.57105  0.12100  0.48253  Biso   1.000  O
  O7       1.0000 0.44179  0.37989  0.00673  Biso   1.000  O
  O8       1.0000 0.49327  0.36635  0.26232  Biso   1.000  O
  Zr5      1.0000 0.27491  0.02283  0.64533  Biso   1.000  Zr
  Zr6      1.0000 0.27239  0.22750  0.89189  Biso   1.000  Zr
  Zr7      1.0000 0.72260  0.27761  0.60949  Biso   1.000  Zr
  Zr8      1.0000 0.71785  0.48107  0.85532  Biso   1.000  Zr
  O9       1.0000 0.06292  0.16471  0.58065  Biso   1.000  O
  O10      1.0000 0.05756  0.08883  0.82207  Biso   1.000  O
  O11      1.0000 0.93663  0.41195  0.68436  Biso   1.000  O
  O12      1.0000 0.94342  0.34469  0.92496  Biso   1.000  O
  O13      1.0000 0.54407  0.12794  0.73793  Biso   1.000  O
  O14      1.0000 0.54180  0.12061  0.98304  Biso   1.000  O
  O15      1.0000 0.45296  0.38380  0.51806  Biso   1.000  O
  O16      1.0000 0.44928  0.37359  0.76194  Biso   1.000  O
  Zr9      1.0000 0.27611  0.51814  0.14727  Biso   1.000  Zr
  Zr10     1.0000 0.26619  0.73017  0.39810  Biso   1.000  Zr
  Zr11     1.0000 0.72172  0.76980  0.10366  Biso   1.000  Zr
  Zr12     1.0000 0.71008  0.96693  0.35363  Biso   1.000  Zr
  O17      1.0000 0.05500  0.65149  0.07123  Biso   1.000  O
  O18      1.0000 0.06327  0.59854  0.31615  Biso   1.000  O
  O19      1.0000 0.93725  0.90510  0.17856  Biso   1.000  O
  O20      1.0000 0.93176  0.83844  0.43169  Biso   1.000  O
  O21      1.0000 0.54752  0.62674  0.23925  Biso   1.000  O
  O22      1.0000 0.53505  0.62932  0.49454  Biso   1.000  O
  O23      1.0000 0.45006  0.87750  0.01153  Biso   1.000  O
  O24      1.0000 0.44153  0.86682  0.25889  Biso   1.000  O
  Zr13     1.0000 0.27032  0.52400  0.64827  Biso   1.000  Zr
  Zr14     1.0000 0.27253  0.72693  0.89727  Biso   1.000  Zr
  Zr15     1.0000 0.71811  0.77314  0.60813  Biso   1.000  Zr
  Zr16     1.0000 0.72178  0.97707  0.85371  Biso   1.000  Zr
  O25      1.0000 0.04762  0.65770  0.57272  Biso   1.000  O
  O26      1.0000 0.05549  0.59414  0.82299  Biso   1.000  O
  O27      1.0000 0.93799  0.91027  0.67830  Biso   1.000  O
  O28      1.0000 0.93706  0.83970  0.92902  Biso   1.000  O
  O29      1.0000 0.54355  0.62874  0.74205  Biso   1.000  O
  O30      1.0000 0.54587  0.62332  0.99112  Biso   1.000  O
  O31      1.0000 0.44181  0.87793  0.51253  Biso   1.000  O
  O32      1.0000 0.44893  0.87261  0.76197  Biso   1.000  O
  Ta1      1.0000 0.79071  0.23921  0.32552  Biso   1.000  Ta
