data_image0
_cell_length_a       10.0799
_cell_length_b       10.2864
_cell_length_c       10.5023
_cell_angle_alpha    89.9524
_cell_angle_beta     89.9089
_cell_angle_gamma    89.9842

_symmetry_space_group_name_H-M    "P 1"
_symmetry_int_tables_number       1

loop_
  _symmetry_equiv_pos_as_xyz
  'x, y, z'

loop_
  _atom_site_label
  _atom_site_occupancy
  _atom_site_fract_x
  _atom_site_fract_y
  _atom_site_fract_z
  _atom_site_thermal_displace_type
  _atom_site_B_iso_or_equiv
  _atom_site_type_symbol
  Tc1      1.0000 0.13965  0.02219  0.17635  Biso   1.000  Tc
  Zr1      1.0000 0.13973  0.22989  0.42014  Biso   1.000  Zr
  Zr2      1.0000 0.36003  0.26987  0.17192  Biso   1.000  Zr
  Zr3      1.0000 0.36131  0.47972  0.42128  Biso   1.000  Zr
  Zr4      1.0000 0.63852  0.02177  0.07787  Biso   1.000  Zr
  Zr5      1.0000 0.63856  0.22905  0.32868  Biso   1.000  Zr
  Zr6      1.0000 0.86377  0.26918  0.08007  Biso   1.000  Zr
  Zr7      1.0000 0.86083  0.47923  0.32847  Biso   1.000  Zr
  O1       1.0000 0.03327  0.16036  0.08449  Biso   1.000  O
  O2       1.0000 0.03768  0.08475  0.32498  Biso   1.000  O
  O3       1.0000 0.46702  0.41492  0.08447  Biso   1.000  O
  O4       1.0000 0.46617  0.33362  0.33447  Biso   1.000  O
  O5       1.0000 0.27588  0.12192  0.29493  Biso   1.000  O
  O6       1.0000 0.27049  0.12004  0.05254  Biso   1.000  O
  O7       1.0000 0.22460  0.37482  0.29493  Biso   1.000  O
  O8       1.0000 0.22497  0.37408  0.04521  Biso   1.000  O
  O9       1.0000 0.53248  0.16515  0.16701  Biso   1.000  O
  O10      1.0000 0.53253  0.08492  0.41680  Biso   1.000  O
  O11      1.0000 0.96806  0.41496  0.16692  Biso   1.000  O
  O12      1.0000 0.96741  0.33443  0.41573  Biso   1.000  O
  O13      1.0000 0.77716  0.12351  0.45342  Biso   1.000  O
  O14      1.0000 0.77554  0.12551  0.20467  Biso   1.000  O
  O15      1.0000 0.72418  0.37382  0.45557  Biso   1.000  O
  O16      1.0000 0.72468  0.37554  0.20540  Biso   1.000  O
  Zr8      1.0000 0.13865  0.02109  0.67106  Biso   1.000  Zr
  Zr9      1.0000 0.13759  0.22579  0.92367  Biso   1.000  Zr
  Zr10     1.0000 0.36108  0.27145  0.67196  Biso   1.000  Zr
  Zr11     1.0000 0.36101  0.47860  0.92166  Biso   1.000  Zr
  Zr12     1.0000 0.63848  0.02110  0.57827  Biso   1.000  Zr
  Zr13     1.0000 0.63883  0.22944  0.82912  Biso   1.000  Zr
  Zr14     1.0000 0.86135  0.27094  0.57835  Biso   1.000  Zr
  Zr15     1.0000 0.86146  0.47858  0.82981  Biso   1.000  Zr
  O17      1.0000 0.03115  0.16146  0.57796  Biso   1.000  O
  O18      1.0000 0.03066  0.08656  0.82987  Biso   1.000  O
  O19      1.0000 0.46688  0.41599  0.58405  Biso   1.000  O
  O20      1.0000 0.46746  0.33515  0.83381  Biso   1.000  O
  O21      1.0000 0.27564  0.12400  0.79761  Biso   1.000  O
  O22      1.0000 0.27607  0.12639  0.54555  Biso   1.000  O
  O23      1.0000 0.22409  0.37385  0.79544  Biso   1.000  O
  O24      1.0000 0.22399  0.37559  0.54460  Biso   1.000  O
  O25      1.0000 0.53247  0.16527  0.66701  Biso   1.000  O
  O26      1.0000 0.53026  0.08679  0.91814  Biso   1.000  O
  O27      1.0000 0.96821  0.41308  0.66768  Biso   1.000  O
  O28      1.0000 0.96853  0.33387  0.91826  Biso   1.000  O
  O29      1.0000 0.77479  0.12435  0.95425  Biso   1.000  O
  O30      1.0000 0.77544  0.12583  0.70413  Biso   1.000  O
  O31      1.0000 0.72506  0.37437  0.95565  Biso   1.000  O
  O32      1.0000 0.72438  0.37605  0.70541  Biso   1.000  O
  Zr16     1.0000 0.13912  0.52121  0.17114  Biso   1.000  Zr
  Zr17     1.0000 0.13819  0.72933  0.42087  Biso   1.000  Zr
  Zr18     1.0000 0.35814  0.77491  0.17089  Biso   1.000  Zr
  Zr19     1.0000 0.36038  0.97909  0.42103  Biso   1.000  Zr
  Zr20     1.0000 0.63846  0.52158  0.07946  Biso   1.000  Zr
  Zr21     1.0000 0.63796  0.72906  0.32787  Biso   1.000  Zr
  Zr22     1.0000 0.86405  0.77254  0.07828  Biso   1.000  Zr
  Zr23     1.0000 0.86223  0.97957  0.32702  Biso   1.000  Zr
  O33      1.0000 0.03251  0.66393  0.08268  Biso   1.000  O
  O34      1.0000 0.03223  0.58531  0.33270  Biso   1.000  O
  O35      1.0000 0.46837  0.91430  0.08238  Biso   1.000  O
  O36      1.0000 0.46614  0.83602  0.33267  Biso   1.000  O
  O37      1.0000 0.27545  0.62573  0.29518  Biso   1.000  O
  O38      1.0000 0.27586  0.62678  0.04504  Biso   1.000  O
  O39      1.0000 0.21999  0.87713  0.29310  Biso   1.000  O
  O40      1.0000 0.22020  0.87810  0.04548  Biso   1.000  O
  O41      1.0000 0.53164  0.66661  0.16631  Biso   1.000  O
  O42      1.0000 0.53283  0.58493  0.41642  Biso   1.000  O
  O43      1.0000 0.97722  0.91758  0.16470  Biso   1.000  O
  O44      1.0000 0.96768  0.83669  0.41626  Biso   1.000  O
  O45      1.0000 0.77533  0.62437  0.45498  Biso   1.000  O
  O46      1.0000 0.77551  0.62627  0.20516  Biso   1.000  O
  O47      1.0000 0.72406  0.87441  0.45394  Biso   1.000  O
  O48      1.0000 0.72951  0.87666  0.20460  Biso   1.000  O
  Zr24     1.0000 0.13884  0.52095  0.67182  Biso   1.000  Zr
  Zr25     1.0000 0.13922  0.72981  0.92145  Biso   1.000  Zr
  Zr26     1.0000 0.36142  0.77100  0.67120  Biso   1.000  Zr
  Zr27     1.0000 0.35989  0.97796  0.92267  Biso   1.000  Zr
  Zr28     1.0000 0.63892  0.52121  0.57950  Biso   1.000  Zr
  Zr29     1.0000 0.63885  0.72898  0.82967  Biso   1.000  Zr
  Zr30     1.0000 0.86062  0.77114  0.57829  Biso   1.000  Zr
  Zr31     1.0000 0.86075  0.97894  0.82799  Biso   1.000  Zr
  O49      1.0000 0.03166  0.66419  0.58226  Biso   1.000  O
  O50      1.0000 0.03241  0.58516  0.83330  Biso   1.000  O
  O51      1.0000 0.46734  0.91528  0.58365  Biso   1.000  O
  O52      1.0000 0.46677  0.83457  0.83419  Biso   1.000  O
  O53      1.0000 0.27587  0.62410  0.79518  Biso   1.000  O
  O54      1.0000 0.27560  0.62594  0.54520  Biso   1.000  O
  O55      1.0000 0.22417  0.87421  0.79453  Biso   1.000  O
  O56      1.0000 0.22431  0.87557  0.54452  Biso   1.000  O
  O57      1.0000 0.53312  0.66571  0.66666  Biso   1.000  O
  O58      1.0000 0.53320  0.58404  0.91646  Biso   1.000  O
  O59      1.0000 0.96788  0.91401  0.66647  Biso   1.000  O
  O60      1.0000 0.96730  0.83506  0.91608  Biso   1.000  O
  O61      1.0000 0.77656  0.62523  0.95602  Biso   1.000  O
  O62      1.0000 0.77606  0.62555  0.70567  Biso   1.000  O
  O63      1.0000 0.72410  0.87467  0.95478  Biso   1.000  O
  O64      1.0000 0.72402  0.87579  0.70466  Biso   1.000  O
