data_image0
_cell_length_a       10.2484
_cell_length_b       10.3955
_cell_length_c       10.5868
_cell_angle_alpha    89.9636
_cell_angle_beta     79.6318
_cell_angle_gamma    89.9602

_symmetry_space_group_name_H-M    "P 1"
_symmetry_int_tables_number       1

loop_
  _symmetry_equiv_pos_as_xyz
  'x, y, z'

loop_
  _atom_site_label
  _atom_site_occupancy
  _atom_site_fract_x
  _atom_site_fract_y
  _atom_site_fract_z
  _atom_site_thermal_displace_type
  _atom_site_B_iso_or_equiv
  _atom_site_type_symbol
  Zr1      1.0000 0.13107  0.02012  0.14216  Biso   1.000  Zr
  Zr2      1.0000 0.13756  0.22679  0.39059  Biso   1.000  Zr
  Zr3      1.0000 0.34703  0.27330  0.09246  Biso   1.000  Zr
  Zr4      1.0000 0.35881  0.48478  0.35252  Biso   1.000  Zr
  O1       1.0000 0.03072  0.16753  0.07552  Biso   1.000  O
  O2       1.0000 0.02827  0.08157  0.32883  Biso   1.000  O
  O3       1.0000 0.45592  0.43550  0.15736  Biso   1.000  O
  O4       1.0000 0.48685  0.37739  0.45686  Biso   1.000  O
  O5       1.0000 0.26076  0.12122  0.23127  Biso   1.000  O
  O6       1.0000 0.28116  0.11805  0.48432  Biso   1.000  O
  O7       1.0000 0.21630  0.38244  0.00341  Biso   1.000  O
  O8       1.0000 0.21182  0.37470  0.25395  Biso   1.000  O
  Zr5      1.0000 0.14018  0.02116  0.64349  Biso   1.000  Zr
  Zr6      1.0000 0.13355  0.22880  0.89062  Biso   1.000  Zr
  Zr7      1.0000 0.36461  0.27947  0.60798  Biso   1.000  Zr
  Zr8      1.0000 0.35957  0.48025  0.85704  Biso   1.000  Zr
  O9       1.0000 0.04043  0.16833  0.57770  Biso   1.000  O
  O10      1.0000 0.03200  0.08352  0.82558  Biso   1.000  O
  O11      1.0000 0.47072  0.40987  0.68993  Biso   1.000  O
  O12      1.0000 0.46346  0.33336  0.92378  Biso   1.000  O
  O13      1.0000 0.27398  0.12941  0.73655  Biso   1.000  O
  O14      1.0000 0.26975  0.12404  0.98329  Biso   1.000  O
  O15      1.0000 0.22819  0.37634  0.50712  Biso   1.000  O
  O16      1.0000 0.22481  0.37322  0.75767  Biso   1.000  O
  Zr9      1.0000 0.13760  0.52313  0.14501  Biso   1.000  Zr
  Zr10     1.0000 0.13589  0.72795  0.39629  Biso   1.000  Zr
  Zr11     1.0000 0.35864  0.77278  0.10318  Biso   1.000  Zr
  Zr12     1.0000 0.35960  0.96400  0.35671  Biso   1.000  Zr
  O17      1.0000 0.03179  0.66793  0.07735  Biso   1.000  O
  O18      1.0000 0.03277  0.58503  0.32740  Biso   1.000  O
  O19      1.0000 0.46293  0.91685  0.17144  Biso   1.000  O
  O20      1.0000 0.45920  0.81973  0.42259  Biso   1.000  O
  O21      1.0000 0.27289  0.63049  0.24132  Biso   1.000  O
  O22      1.0000 0.27173  0.62065  0.49092  Biso   1.000  O
  O23      1.0000 0.22295  0.88020  0.00859  Biso   1.000  O
  O24      1.0000 0.22089  0.86832  0.25965  Biso   1.000  O
  Zr13     1.0000 0.13832  0.52187  0.64516  Biso   1.000  Zr
  Zr14     1.0000 0.13630  0.72891  0.89576  Biso   1.000  Zr
  Zr15     1.0000 0.36081  0.76897  0.60685  Biso   1.000  Zr
  Zr16     1.0000 0.35934  0.97960  0.85242  Biso   1.000  Zr
  O25      1.0000 0.03081  0.66502  0.57865  Biso   1.000  O
  O26      1.0000 0.03279  0.58440  0.82772  Biso   1.000  O
  O27      1.0000 0.46498  0.91640  0.66994  Biso   1.000  O
  O28      1.0000 0.46427  0.83623  0.92043  Biso   1.000  O
  O29      1.0000 0.27454  0.62723  0.74070  Biso   1.000  O
  O30      1.0000 0.27380  0.62453  0.99134  Biso   1.000  O
  O31      1.0000 0.22230  0.87513  0.51155  Biso   1.000  O
  O32      1.0000 0.22366  0.87121  0.75985  Biso   1.000  O
  Zr17     1.0000 0.63947  0.01606  0.14775  Biso   1.000  Zr
  Zr18     1.0000 0.66532  0.23537  0.41247  Biso   1.000  Zr
  Zr19     1.0000 0.85827  0.27317  0.10777  Biso   1.000  Zr
  Zr20     1.0000 0.86362  0.48082  0.35481  Biso   1.000  Zr
  O33      1.0000 0.52764  0.15964  0.07511  Biso   1.000  O
  O34      1.0000 0.54721  0.04764  0.34294  Biso   1.000  O
  O35      1.0000 0.96380  0.41939  0.17038  Biso   1.000  O
  O36      1.0000 0.96472  0.33066  0.42159  Biso   1.000  O
  O37      1.0000 0.77556  0.13006  0.24508  Biso   1.000  O
  O38      1.0000 0.78591  0.11593  0.49980  Biso   1.000  O
  O39      1.0000 0.72082  0.37776  0.01437  Biso   1.000  O
  O40      1.0000 0.72556  0.37372  0.26531  Biso   1.000  O
  Zr21     1.0000 0.63775  0.02132  0.64691  Biso   1.000  Zr
  Zr22     1.0000 0.63730  0.22732  0.89853  Biso   1.000  Zr
  Zr23     1.0000 0.86781  0.27073  0.61157  Biso   1.000  Zr
  Zr24     1.0000 0.85937  0.47919  0.85717  Biso   1.000  Zr
  O41      1.0000 0.53760  0.16848  0.57625  Biso   1.000  O
  O42      1.0000 0.53132  0.08555  0.82564  Biso   1.000  O
  O43      1.0000 0.96844  0.41635  0.67447  Biso   1.000  O
  O44      1.0000 0.96147  0.33317  0.92180  Biso   1.000  O
  O45      1.0000 0.77433  0.12893  0.74463  Biso   1.000  O
  O46      1.0000 0.77320  0.12103  0.99362  Biso   1.000  O
  O47      1.0000 0.73472  0.38026  0.51911  Biso   1.000  O
  O48      1.0000 0.72630  0.37157  0.76522  Biso   1.000  O
  Zr25     1.0000 0.63404  0.52452  0.14423  Biso   1.000  Zr
  Zr26     1.0000 0.63874  0.72518  0.39594  Biso   1.000  Zr
  Zr27     1.0000 0.85874  0.76932  0.10456  Biso   1.000  Zr
  Zr28     1.0000 0.85838  0.97543  0.35530  Biso   1.000  Zr
  O49      1.0000 0.53490  0.67461  0.07754  Biso   1.000  O
  O50      1.0000 0.53116  0.58878  0.32257  Biso   1.000  O
  O51      1.0000 0.96110  0.91435  0.17307  Biso   1.000  O
  O52      1.0000 0.96360  0.83200  0.42292  Biso   1.000  O
  O53      1.0000 0.77491  0.62744  0.24078  Biso   1.000  O
  O54      1.0000 0.77364  0.62085  0.49065  Biso   1.000  O
  O55      1.0000 0.72370  0.87865  0.01033  Biso   1.000  O
  O56      1.0000 0.72375  0.86667  0.25911  Biso   1.000  O
  Zr29     1.0000 0.63748  0.52180  0.64938  Biso   1.000  Zr
  Zr30     1.0000 0.63639  0.73053  0.89566  Biso   1.000  Zr
  Zr31     1.0000 0.85997  0.77234  0.60526  Biso   1.000  Zr
  Zr32     1.0000 0.86005  0.97870  0.85503  Biso   1.000  Zr
  O57      1.0000 0.53198  0.66259  0.57999  Biso   1.000  O
  O58      1.0000 0.53177  0.58658  0.83082  Biso   1.000  O
  O59      1.0000 0.96546  0.91685  0.67168  Biso   1.000  O
  O60      1.0000 0.96485  0.83438  0.92192  Biso   1.000  O
  O61      1.0000 0.77347  0.62895  0.74050  Biso   1.000  O
  O62      1.0000 0.77302  0.62160  0.99001  Biso   1.000  O
  O63      1.0000 0.72123  0.87657  0.51080  Biso   1.000  O
  O64      1.0000 0.72382  0.87299  0.76055  Biso   1.000  O
  Tl1      1.0000 0.45246  0.23333  0.29981  Biso   1.000  Tl
