data_image0
_cell_length_a       10.223
_cell_length_b       10.3562
_cell_length_c       10.5173
_cell_angle_alpha    90.0082
_cell_angle_beta     80.3694
_cell_angle_gamma    90.0223

_symmetry_space_group_name_H-M    "P 1"
_symmetry_int_tables_number       1

loop_
  _symmetry_equiv_pos_as_xyz
  'x, y, z'

loop_
  _atom_site_label
  _atom_site_occupancy
  _atom_site_fract_x
  _atom_site_fract_y
  _atom_site_fract_z
  _atom_site_thermal_displace_type
  _atom_site_B_iso_or_equiv
  _atom_site_type_symbol
  Tl1      1.0000 0.13585  0.01600  0.14451  Biso   1.000  Tl
  Zr1      1.0000 0.13917  0.02126  0.64493  Biso   1.000  Zr
  Zr2      1.0000 0.13897  0.52107  0.14428  Biso   1.000  Zr
  Zr3      1.0000 0.13942  0.52129  0.64555  Biso   1.000  Zr
  Zr4      1.0000 0.63963  0.02076  0.14585  Biso   1.000  Zr
  Zr5      1.0000 0.63944  0.02181  0.64597  Biso   1.000  Zr
  Zr6      1.0000 0.63835  0.51950  0.14533  Biso   1.000  Zr
  Zr7      1.0000 0.63900  0.52121  0.64515  Biso   1.000  Zr
  Zr8      1.0000 0.13897  0.22841  0.39535  Biso   1.000  Zr
  Zr9      1.0000 0.13962  0.22917  0.89455  Biso   1.000  Zr
  Zr10     1.0000 0.13924  0.72772  0.39534  Biso   1.000  Zr
  Zr11     1.0000 0.14008  0.72948  0.89506  Biso   1.000  Zr
  Zr12     1.0000 0.63838  0.22920  0.39559  Biso   1.000  Zr
  Zr13     1.0000 0.63949  0.22914  0.89610  Biso   1.000  Zr
  Zr14     1.0000 0.63760  0.72804  0.39539  Biso   1.000  Zr
  Zr15     1.0000 0.63982  0.72891  0.89465  Biso   1.000  Zr
  Zr16     1.0000 0.35913  0.26886  0.10446  Biso   1.000  Zr
  Zr17     1.0000 0.36056  0.27107  0.60429  Biso   1.000  Zr
  Zr18     1.0000 0.36293  0.77037  0.10441  Biso   1.000  Zr
  Zr19     1.0000 0.36067  0.77169  0.60443  Biso   1.000  Zr
  Zr20     1.0000 0.86144  0.27107  0.10431  Biso   1.000  Zr
  Zr21     1.0000 0.86091  0.27174  0.60476  Biso   1.000  Zr
  Zr22     1.0000 0.85904  0.76931  0.10437  Biso   1.000  Zr
  Zr23     1.0000 0.86137  0.77118  0.60443  Biso   1.000  Zr
  Zr24     1.0000 0.35982  0.47800  0.35358  Biso   1.000  Zr
  Zr25     1.0000 0.36160  0.47857  0.85481  Biso   1.000  Zr
  Zr26     1.0000 0.36045  0.97919  0.35439  Biso   1.000  Zr
  Zr27     1.0000 0.36213  0.97973  0.85369  Biso   1.000  Zr
  Zr28     1.0000 0.86072  0.47905  0.35442  Biso   1.000  Zr
  Zr29     1.0000 0.86114  0.47892  0.85424  Biso   1.000  Zr
  Zr30     1.0000 0.85766  0.97859  0.35728  Biso   1.000  Zr
  Zr31     1.0000 0.86154  0.97880  0.85519  Biso   1.000  Zr
  O1       1.0000 0.03623  0.18027  0.07776  Biso   1.000  O
  O2       1.0000 0.03566  0.17140  0.58311  Biso   1.000  O
  O3       1.0000 0.03553  0.66956  0.07953  Biso   1.000  O
  O4       1.0000 0.03491  0.66843  0.58084  Biso   1.000  O
  O5       1.0000 0.53547  0.16764  0.07929  Biso   1.000  O
  O6       1.0000 0.53377  0.16754  0.57961  Biso   1.000  O
  O7       1.0000 0.53543  0.66630  0.07841  Biso   1.000  O
  O8       1.0000 0.53381  0.66692  0.57945  Biso   1.000  O
  O9       1.0000 0.02895  0.08202  0.34349  Biso   1.000  O
  O10      1.0000 0.03555  0.08069  0.83024  Biso   1.000  O
  O11      1.0000 0.03464  0.58174  0.32954  Biso   1.000  O
  O12      1.0000 0.03519  0.58136  0.82966  Biso   1.000  O
  O13      1.0000 0.53512  0.08179  0.33014  Biso   1.000  O
  O14      1.0000 0.53640  0.08267  0.82856  Biso   1.000  O
  O15      1.0000 0.53316  0.58199  0.32881  Biso   1.000  O
  O16      1.0000 0.53476  0.58290  0.82858  Biso   1.000  O
  O17      1.0000 0.46522  0.41583  0.17100  Biso   1.000  O
  O18      1.0000 0.46595  0.41712  0.67080  Biso   1.000  O
  O19      1.0000 0.46691  0.91746  0.17058  Biso   1.000  O
  O20      1.0000 0.46647  0.91739  0.67034  Biso   1.000  O
  O21      1.0000 0.96276  0.42189  0.16933  Biso   1.000  O
  O22      1.0000 0.96502  0.41952  0.66931  Biso   1.000  O
  O23      1.0000 0.94981  0.91792  0.17274  Biso   1.000  O
  O24      1.0000 0.96493  0.91881  0.66987  Biso   1.000  O
  O25      1.0000 0.46509  0.33235  0.42087  Biso   1.000  O
  O26      1.0000 0.46750  0.33403  0.92092  Biso   1.000  O
  O27      1.0000 0.46509  0.83210  0.42167  Biso   1.000  O
  O28      1.0000 0.46892  0.83358  0.92033  Biso   1.000  O
  O29      1.0000 0.96470  0.33299  0.42071  Biso   1.000  O
  O30      1.0000 0.96425  0.33217  0.91775  Biso   1.000  O
  O31      1.0000 0.96471  0.83050  0.42024  Biso   1.000  O
  O32      1.0000 0.96529  0.83114  0.91973  Biso   1.000  O
  O33      1.0000 0.28153  0.13163  0.24553  Biso   1.000  O
  O34      1.0000 0.27550  0.12847  0.73838  Biso   1.000  O
  O35      1.0000 0.27602  0.62537  0.23934  Biso   1.000  O
  O36      1.0000 0.27576  0.62903  0.74030  Biso   1.000  O
  O37      1.0000 0.77476  0.12955  0.24171  Biso   1.000  O
  O38      1.0000 0.77661  0.12911  0.74091  Biso   1.000  O
  O39      1.0000 0.77398  0.62797  0.24059  Biso   1.000  O
  O40      1.0000 0.77561  0.62889  0.73973  Biso   1.000  O
  O41      1.0000 0.27522  0.12120  0.49147  Biso   1.000  O
  O42      1.0000 0.28359  0.12705  0.98162  Biso   1.000  O
  O43      1.0000 0.27538  0.62102  0.49036  Biso   1.000  O
  O44      1.0000 0.27612  0.62068  0.98986  Biso   1.000  O
  O45      1.0000 0.77371  0.12222  0.49227  Biso   1.000  O
  O46      1.0000 0.77596  0.12098  0.99079  Biso   1.000  O
  O47      1.0000 0.77509  0.62144  0.49036  Biso   1.000  O
  O48      1.0000 0.77500  0.62009  0.98970  Biso   1.000  O
  O49      1.0000 0.22542  0.38009  0.00846  Biso   1.000  O
  O50      1.0000 0.22437  0.37901  0.50922  Biso   1.000  O
  O51      1.0000 0.23166  0.87330  0.00315  Biso   1.000  O
  O52      1.0000 0.22419  0.87872  0.51008  Biso   1.000  O
  O53      1.0000 0.72430  0.37864  0.00926  Biso   1.000  O
  O54      1.0000 0.72395  0.37903  0.50963  Biso   1.000  O
  O55      1.0000 0.72438  0.87823  0.00907  Biso   1.000  O
  O56      1.0000 0.72392  0.87850  0.51045  Biso   1.000  O
  O57      1.0000 0.22271  0.37113  0.25869  Biso   1.000  O
  O58      1.0000 0.22517  0.37197  0.75881  Biso   1.000  O
  O59      1.0000 0.23091  0.86332  0.26242  Biso   1.000  O
  O60      1.0000 0.22480  0.87172  0.75804  Biso   1.000  O
  O61      1.0000 0.72377  0.37153  0.26015  Biso   1.000  O
  O62      1.0000 0.72478  0.37150  0.75913  Biso   1.000  O
  O63      1.0000 0.71899  0.87000  0.26136  Biso   1.000  O
  O64      1.0000 0.72547  0.87150  0.75930  Biso   1.000  O
