data_image0
_cell_length_a       5.12502
_cell_length_b       10.3683
_cell_length_c       10.5345
_cell_angle_alpha    90.0555
_cell_angle_beta     80.4297
_cell_angle_gamma    90.0315

_symmetry_space_group_name_H-M    "P 1"
_symmetry_int_tables_number       1

loop_
  _symmetry_equiv_pos_as_xyz
  'x, y, z'

loop_
  _atom_site_label
  _atom_site_occupancy
  _atom_site_fract_x
  _atom_site_fract_y
  _atom_site_fract_z
  _atom_site_thermal_displace_type
  _atom_site_B_iso_or_equiv
  _atom_site_type_symbol
  Tl1      1.0000 0.27290  0.01604  0.14493  Biso   1.000  Tl
  Zr1      1.0000 0.27922  0.02149  0.64547  Biso   1.000  Zr
  Zr2      1.0000 0.27700  0.51948  0.14415  Biso   1.000  Zr
  Zr3      1.0000 0.27889  0.52136  0.64537  Biso   1.000  Zr
  Zr4      1.0000 0.27787  0.22946  0.39576  Biso   1.000  Zr
  Zr5      1.0000 0.28067  0.22982  0.89475  Biso   1.000  Zr
  Zr6      1.0000 0.27543  0.72668  0.39557  Biso   1.000  Zr
  Zr7      1.0000 0.28192  0.72972  0.89441  Biso   1.000  Zr
  Zr8      1.0000 0.71861  0.26890  0.10400  Biso   1.000  Zr
  Zr9      1.0000 0.72058  0.27145  0.60440  Biso   1.000  Zr
  Zr10     1.0000 0.72180  0.76841  0.10441  Biso   1.000  Zr
  Zr11     1.0000 0.72188  0.77149  0.60435  Biso   1.000  Zr
  Zr12     1.0000 0.71931  0.47828  0.35344  Biso   1.000  Zr
  Zr13     1.0000 0.72354  0.47891  0.85429  Biso   1.000  Zr
  Zr14     1.0000 0.71312  0.97848  0.35721  Biso   1.000  Zr
  Zr15     1.0000 0.72504  0.97978  0.85411  Biso   1.000  Zr
  O1       1.0000 0.07288  0.17986  0.07690  Biso   1.000  O
  O2       1.0000 0.06868  0.17020  0.58260  Biso   1.000  O
  O3       1.0000 0.07171  0.66729  0.07811  Biso   1.000  O
  O4       1.0000 0.06753  0.66691  0.58052  Biso   1.000  O
  O5       1.0000 0.05821  0.08209  0.34472  Biso   1.000  O
  O6       1.0000 0.07335  0.08222  0.82867  Biso   1.000  O
  O7       1.0000 0.06593  0.58192  0.32853  Biso   1.000  O
  O8       1.0000 0.06972  0.58292  0.82835  Biso   1.000  O
  O9       1.0000 0.92624  0.41914  0.16999  Biso   1.000  O
  O10      1.0000 0.93226  0.41791  0.66988  Biso   1.000  O
  O11      1.0000 0.90510  0.91644  0.17403  Biso   1.000  O
  O12      1.0000 0.93267  0.91765  0.67016  Biso   1.000  O
  O13      1.0000 0.92954  0.33345  0.42114  Biso   1.000  O
  O14      1.0000 0.93352  0.33469  0.91846  Biso   1.000  O
  O15      1.0000 0.92928  0.83094  0.42178  Biso   1.000  O
  O16      1.0000 0.93877  0.83379  0.92044  Biso   1.000  O
  O17      1.0000 0.56045  0.13229  0.24652  Biso   1.000  O
  O18      1.0000 0.55244  0.12887  0.73862  Biso   1.000  O
  O19      1.0000 0.54882  0.62463  0.23943  Biso   1.000  O
  O20      1.0000 0.55124  0.62919  0.73963  Biso   1.000  O
  O21      1.0000 0.54648  0.12205  0.49305  Biso   1.000  O
  O22      1.0000 0.56655  0.12676  0.98186  Biso   1.000  O
  O23      1.0000 0.54941  0.62101  0.49025  Biso   1.000  O
  O24      1.0000 0.55088  0.61976  0.98916  Biso   1.000  O
  O25      1.0000 0.45113  0.38004  0.00815  Biso   1.000  O
  O26      1.0000 0.44814  0.37913  0.50929  Biso   1.000  O
  O27      1.0000 0.46384  0.87287  0.00279  Biso   1.000  O
  O28      1.0000 0.44766  0.87829  0.51092  Biso   1.000  O
  O29      1.0000 0.44477  0.37148  0.25925  Biso   1.000  O
  O30      1.0000 0.45156  0.37234  0.75833  Biso   1.000  O
  O31      1.0000 0.45160  0.86213  0.26397  Biso   1.000  O
  O32      1.0000 0.45187  0.87199  0.75787  Biso   1.000  O
