data_image0
_cell_length_a       10.1883
_cell_length_b       5.17755
_cell_length_c       10.5628
_cell_angle_alpha    89.5214
_cell_angle_beta     90.7794
_cell_angle_gamma    89.7996

_symmetry_space_group_name_H-M    "P 1"
_symmetry_int_tables_number       1

loop_
  _symmetry_equiv_pos_as_xyz
  'x, y, z'

loop_
  _atom_site_label
  _atom_site_occupancy
  _atom_site_fract_x
  _atom_site_fract_y
  _atom_site_fract_z
  _atom_site_thermal_displace_type
  _atom_site_B_iso_or_equiv
  _atom_site_type_symbol
  Zr1      1.0000 0.13959  0.04071  0.17220  Biso   1.000  Zr
  Zr2      1.0000 0.13482  0.45921  0.42368  Biso   1.000  Zr
  Zr3      1.0000 0.34890  0.53845  0.17802  Biso   1.000  Zr
  Zr4      1.0000 0.36130  0.95771  0.42588  Biso   1.000  Zr
  Zr5      1.0000 0.64199  0.06097  0.06803  Biso   1.000  Zr
  Zr6      1.0000 0.63482  0.46534  0.34082  Biso   1.000  Zr
  Zr7      1.0000 0.87690  0.54896  0.07550  Biso   1.000  Zr
  Zr8      1.0000 0.86185  0.96365  0.33032  Biso   1.000  Zr
  O1       1.0000 0.03802  0.31837  0.07644  Biso   1.000  O
  O2       1.0000 0.02582  0.18980  0.32580  Biso   1.000  O
  O3       1.0000 0.47200  0.80652  0.08167  Biso   1.000  O
  O4       1.0000 0.46264  0.67308  0.33379  Biso   1.000  O
  O5       1.0000 0.26872  0.24886  0.29869  Biso   1.000  O
  O6       1.0000 0.27764  0.24302  0.04439  Biso   1.000  O
  O7       1.0000 0.22023  0.75040  0.29936  Biso   1.000  O
  O8       1.0000 0.22498  0.74733  0.04616  Biso   1.000  O
  O9       1.0000 0.51080  0.29941  0.17212  Biso   1.000  O
  O10      1.0000 0.52991  0.17047  0.42365  Biso   1.000  O
  O11      1.0000 0.97237  0.82887  0.17247  Biso   1.000  O
  O12      1.0000 0.96631  0.68383  0.42075  Biso   1.000  O
  O13      1.0000 0.77813  0.24423  0.45532  Biso   1.000  O
  O14      1.0000 0.75612  0.30306  0.19555  Biso   1.000  O
  O15      1.0000 0.72496  0.74866  0.46113  Biso   1.000  O
  O16      1.0000 0.72682  0.78498  0.20841  Biso   1.000  O
  Zr9      1.0000 0.13925  0.03771  0.67023  Biso   1.000  Zr
  Zr10     1.0000 0.14391  0.44934  0.91818  Biso   1.000  Zr
  Zr11     1.0000 0.36495  0.53584  0.67239  Biso   1.000  Zr
  Zr12     1.0000 0.36151  0.94876  0.91871  Biso   1.000  Zr
  Zr13     1.0000 0.63990  0.04133  0.58159  Biso   1.000  Zr
  Zr14     1.0000 0.64250  0.45025  0.83142  Biso   1.000  Zr
  Zr15     1.0000 0.86118  0.54111  0.58167  Biso   1.000  Zr
  Zr16     1.0000 0.86569  0.95495  0.82834  Biso   1.000  Zr
  O17      1.0000 0.03104  0.32338  0.57962  Biso   1.000  O
  O18      1.0000 0.03593  0.17229  0.82773  Biso   1.000  O
  O19      1.0000 0.46892  0.82615  0.58596  Biso   1.000  O
  O20      1.0000 0.46717  0.65550  0.83651  Biso   1.000  O
  O21      1.0000 0.27782  0.23978  0.79414  Biso   1.000  O
  O22      1.0000 0.27330  0.24939  0.54619  Biso   1.000  O
  O23      1.0000 0.22748  0.74255  0.79483  Biso   1.000  O
  O24      1.0000 0.22613  0.74837  0.54669  Biso   1.000  O
  O25      1.0000 0.53453  0.32830  0.66708  Biso   1.000  O
  O26      1.0000 0.53395  0.14325  0.90488  Biso   1.000  O
  O27      1.0000 0.97045  0.82308  0.66727  Biso   1.000  O
  O28      1.0000 0.97714  0.67543  0.91595  Biso   1.000  O
  O29      1.0000 0.79112  0.23918  0.94684  Biso   1.000  O
  O30      1.0000 0.77776  0.24736  0.70259  Biso   1.000  O
  O31      1.0000 0.72782  0.74014  0.96299  Biso   1.000  O
  O32      1.0000 0.72767  0.74873  0.71005  Biso   1.000  O
  V1       1.0000 0.61595  0.56230  0.10324  Biso   1.000  V
