data_image0
_cell_length_a       5.073
_cell_length_b       10.2653
_cell_length_c       10.1038
_cell_angle_alpha    89.9997
_cell_angle_beta     89.5126
_cell_angle_gamma    90.0027

_symmetry_space_group_name_H-M    "P 1"
_symmetry_int_tables_number       1

loop_
  _symmetry_equiv_pos_as_xyz
  'x, y, z'

loop_
  _atom_site_label
  _atom_site_occupancy
  _atom_site_fract_x
  _atom_site_fract_y
  _atom_site_fract_z
  _atom_site_thermal_displace_type
  _atom_site_B_iso_or_equiv
  _atom_site_type_symbol
  Zr1      1.0000 0.25095  0.97678  0.12533  Biso   1.000  Zr
  Zr2      1.0000 0.26311  0.25191  0.38680  Biso   1.000  Zr
  Zr3      1.0000 0.75083  0.25904  0.12531  Biso   1.000  Zr
  Zr4      1.0000 0.76017  0.00604  0.36951  Biso   1.000  Zr
  O1       1.0000 0.99348  0.14515  0.99794  Biso   1.000  O
  O2       1.0000 0.01873  0.10793  0.24562  Biso   1.000  O
  O3       1.0000 0.03568  0.35164  0.24389  Biso   1.000  O
  O4       1.0000 0.98165  0.39935  0.99835  Biso   1.000  O
  O5       1.0000 0.50806  0.14508  0.25257  Biso   1.000  O
  O6       1.0000 0.48285  0.10794  0.00490  Biso   1.000  O
  O7       1.0000 0.46605  0.35166  0.00671  Biso   1.000  O
  O8       1.0000 0.52009  0.39933  0.25228  Biso   1.000  O
  Zr5      1.0000 0.25094  0.99812  0.62530  Biso   1.000  Zr
  Zr6      1.0000 0.23871  0.25190  0.86377  Biso   1.000  Zr
  Zr7      1.0000 0.75093  0.24690  0.62528  Biso   1.000  Zr
  Zr8      1.0000 0.74166  0.00607  0.88111  Biso   1.000  Zr
  O9       1.0000 0.99979  0.14528  0.50104  Biso   1.000  O
  O10      1.0000 0.99729  0.10445  0.74940  Biso   1.000  O
  O11      1.0000 0.98881  0.35914  0.74418  Biso   1.000  O
  O12      1.0000 0.01326  0.39780  0.49593  Biso   1.000  O
  O13      1.0000 0.50204  0.14529  0.74952  Biso   1.000  O
  O14      1.0000 0.50454  0.10446  0.50115  Biso   1.000  O
  O15      1.0000 0.51295  0.35913  0.50642  Biso   1.000  O
  O16      1.0000 0.48851  0.39781  0.75467  Biso   1.000  O
  Zr9      1.0000 0.25089  0.50474  0.12530  Biso   1.000  Zr
  Zr10     1.0000 0.25255  0.75069  0.37794  Biso   1.000  Zr
  Zr11     1.0000 0.75092  0.74487  0.12530  Biso   1.000  Zr
  Zr12     1.0000 0.75253  0.50064  0.37943  Biso   1.000  Zr
  O17      1.0000 0.01813  0.64578  0.00502  Biso   1.000  O
  O18      1.0000 0.98736  0.60446  0.25221  Biso   1.000  O
  O19      1.0000 0.00187  0.85165  0.25017  Biso   1.000  O
  O20      1.0000 0.99153  0.89033  0.99541  Biso   1.000  O
  O21      1.0000 0.48373  0.64575  0.24560  Biso   1.000  O
  O22      1.0000 0.51448  0.60448  0.99840  Biso   1.000  O
  O23      1.0000 0.50001  0.85167  0.00043  Biso   1.000  O
  O24      1.0000 0.51035  0.89029  0.25519  Biso   1.000  O
  Zr13     1.0000 0.25088  0.50386  0.62531  Biso   1.000  Zr
  Zr14     1.0000 0.24929  0.75071  0.87267  Biso   1.000  Zr
  Zr15     1.0000 0.75091  0.75583  0.62531  Biso   1.000  Zr
  Zr16     1.0000 0.74925  0.50064  0.87119  Biso   1.000  Zr
  O25      1.0000 0.00383  0.64784  0.50536  Biso   1.000  O
  O26      1.0000 0.00117  0.60679  0.75426  Biso   1.000  O
  O27      1.0000 0.00928  0.85501  0.74562  Biso   1.000  O
  O28      1.0000 0.99662  0.89875  0.49753  Biso   1.000  O
  O29      1.0000 0.49796  0.64785  0.74525  Biso   1.000  O
  O30      1.0000 0.50063  0.60678  0.49635  Biso   1.000  O
  O31      1.0000 0.49261  0.85501  0.50497  Biso   1.000  O
  O32      1.0000 0.50525  0.89875  0.75305  Biso   1.000  O
  V1       1.0000 0.25080  0.22239  0.12527  Biso   1.000  V
