data_image0
_cell_length_a       10.0561
_cell_length_b       10.1936
_cell_length_c       10.056
_cell_angle_alpha    90
_cell_angle_beta     90
_cell_angle_gamma    90

_symmetry_space_group_name_H-M    "P 1"
_symmetry_int_tables_number       1

loop_
  _symmetry_equiv_pos_as_xyz
  'x, y, z'

loop_
  _atom_site_label
  _atom_site_occupancy
  _atom_site_fract_x
  _atom_site_fract_y
  _atom_site_fract_z
  _atom_site_thermal_displace_type
  _atom_site_B_iso_or_equiv
  _atom_site_type_symbol
  W1       1.0000 0.12540  0.00008  0.12540  Biso   1.000  W
  Zr1      1.0000 0.12634  0.24966  0.37485  Biso   1.000  Zr
  Zr2      1.0000 0.37485  0.24966  0.12634  Biso   1.000  Zr
  Zr3      1.0000 0.37503  0.99997  0.37503  Biso   1.000  Zr
  O1       1.0000 0.99854  0.14278  0.99854  Biso   1.000  O
  O2       1.0000 0.00600  0.10097  0.24480  Biso   1.000  O
  O3       1.0000 0.99869  0.35326  0.25210  Biso   1.000  O
  O4       1.0000 0.00137  0.39532  0.00137  Biso   1.000  O
  O5       1.0000 0.25225  0.14278  0.25225  Biso   1.000  O
  O6       1.0000 0.24479  0.10097  0.00600  Biso   1.000  O
  O7       1.0000 0.25210  0.35326  0.99869  Biso   1.000  O
  O8       1.0000 0.24943  0.39532  0.24943  Biso   1.000  O
  Zr4      1.0000 0.12540  0.00008  0.62540  Biso   1.000  Zr
  Zr5      1.0000 0.12445  0.24966  0.87594  Biso   1.000  Zr
  Zr6      1.0000 0.37546  0.24985  0.62575  Biso   1.000  Zr
  Zr7      1.0000 0.37503  0.00018  0.87576  Biso   1.000  Zr
  O9       1.0000 0.99683  0.14563  0.49512  Biso   1.000  O
  O10      1.0000 0.00199  0.10494  0.74787  Biso   1.000  O
  O11      1.0000 0.99882  0.35433  0.75204  Biso   1.000  O
  O12      1.0000 0.00123  0.39557  0.50143  Biso   1.000  O
  O13      1.0000 0.25396  0.14563  0.75567  Biso   1.000  O
  O14      1.0000 0.24880  0.10494  0.50292  Biso   1.000  O
  O15      1.0000 0.25197  0.35433  0.49876  Biso   1.000  O
  O16      1.0000 0.24956  0.39557  0.74937  Biso   1.000  O
  Zr8      1.0000 0.12540  0.50008  0.12540  Biso   1.000  Zr
  Zr9      1.0000 0.12445  0.75049  0.37485  Biso   1.000  Zr
  Zr10     1.0000 0.37485  0.75049  0.12445  Biso   1.000  Zr
  Zr11     1.0000 0.37576  0.50040  0.37577  Biso   1.000  Zr
  O17      1.0000 0.99869  0.64689  0.99869  Biso   1.000  O
  O18      1.0000 0.00137  0.60483  0.24943  Biso   1.000  O
  O19      1.0000 0.99854  0.85737  0.25225  Biso   1.000  O
  O20      1.0000 0.00600  0.89918  0.00600  Biso   1.000  O
  O21      1.0000 0.25210  0.64689  0.25210  Biso   1.000  O
  O22      1.0000 0.24943  0.60483  0.00137  Biso   1.000  O
  O23      1.0000 0.25225  0.85737  0.99855  Biso   1.000  O
  O24      1.0000 0.24479  0.89918  0.24479  Biso   1.000  O
  Zr12     1.0000 0.12540  0.50008  0.62540  Biso   1.000  Zr
  Zr13     1.0000 0.12634  0.75049  0.87594  Biso   1.000  Zr
  Zr14     1.0000 0.37546  0.75031  0.62505  Biso   1.000  Zr
  Zr15     1.0000 0.37576  0.49975  0.87503  Biso   1.000  Zr
  O25      1.0000 0.99882  0.64582  0.49876  Biso   1.000  O
  O26      1.0000 0.00123  0.60458  0.74937  Biso   1.000  O
  O27      1.0000 0.99683  0.85453  0.75567  Biso   1.000  O
  O28      1.0000 0.00199  0.89521  0.50292  Biso   1.000  O
  O29      1.0000 0.25197  0.64582  0.75204  Biso   1.000  O
  O30      1.0000 0.24956  0.60458  0.50143  Biso   1.000  O
  O31      1.0000 0.25396  0.85453  0.49512  Biso   1.000  O
  O32      1.0000 0.24880  0.89521  0.74787  Biso   1.000  O
  Zr16     1.0000 0.62540  0.00008  0.12540  Biso   1.000  Zr
  Zr17     1.0000 0.62575  0.24985  0.37546  Biso   1.000  Zr
  Zr18     1.0000 0.87594  0.24966  0.12445  Biso   1.000  Zr
  Zr19     1.0000 0.87576  0.00018  0.37503  Biso   1.000  Zr
  O33      1.0000 0.49512  0.14563  0.99683  Biso   1.000  O
  O34      1.0000 0.50293  0.10494  0.24880  Biso   1.000  O
  O35      1.0000 0.49875  0.35433  0.25197  Biso   1.000  O
  O36      1.0000 0.50143  0.39557  0.00123  Biso   1.000  O
  O37      1.0000 0.75568  0.14562  0.25396  Biso   1.000  O
  O38      1.0000 0.74787  0.10494  0.00199  Biso   1.000  O
  O39      1.0000 0.75204  0.35433  0.99883  Biso   1.000  O
  O40      1.0000 0.74936  0.39557  0.24956  Biso   1.000  O
  Zr20     1.0000 0.62540  0.00008  0.62540  Biso   1.000  Zr
  Zr21     1.0000 0.62505  0.24985  0.87534  Biso   1.000  Zr
  Zr22     1.0000 0.87534  0.24985  0.62505  Biso   1.000  Zr
  Zr23     1.0000 0.87576  0.99997  0.87576  Biso   1.000  Zr
  O41      1.0000 0.49730  0.14540  0.49730  Biso   1.000  O
  O42      1.0000 0.50213  0.10494  0.74867  Biso   1.000  O
  O43      1.0000 0.49898  0.35488  0.75181  Biso   1.000  O
  O44      1.0000 0.50131  0.39535  0.50131  Biso   1.000  O
  O45      1.0000 0.75349  0.14540  0.75349  Biso   1.000  O
  O46      1.0000 0.74866  0.10494  0.50213  Biso   1.000  O
  O47      1.0000 0.75181  0.35488  0.49898  Biso   1.000  O
  O48      1.0000 0.74948  0.39535  0.74948  Biso   1.000  O
  Zr24     1.0000 0.62540  0.50008  0.12540  Biso   1.000  Zr
  Zr25     1.0000 0.62505  0.75031  0.37546  Biso   1.000  Zr
  Zr26     1.0000 0.87594  0.75049  0.12634  Biso   1.000  Zr
  Zr27     1.0000 0.87503  0.49975  0.37577  Biso   1.000  Zr
  O49      1.0000 0.49875  0.64582  0.99883  Biso   1.000  O
  O50      1.0000 0.50143  0.60458  0.24956  Biso   1.000  O
  O51      1.0000 0.49512  0.85453  0.25396  Biso   1.000  O
  O52      1.0000 0.50293  0.89521  0.00199  Biso   1.000  O
  O53      1.0000 0.75204  0.64582  0.25197  Biso   1.000  O
  O54      1.0000 0.74936  0.60458  0.00123  Biso   1.000  O
  O55      1.0000 0.75568  0.85453  0.99683  Biso   1.000  O
  O56      1.0000 0.74787  0.89521  0.24880  Biso   1.000  O
  Zr28     1.0000 0.62540  0.50008  0.62540  Biso   1.000  Zr
  Zr29     1.0000 0.62575  0.75031  0.87534  Biso   1.000  Zr
  Zr30     1.0000 0.87534  0.75031  0.62575  Biso   1.000  Zr
  Zr31     1.0000 0.87503  0.50040  0.87503  Biso   1.000  Zr
  O57      1.0000 0.49898  0.64528  0.49898  Biso   1.000  O
  O58      1.0000 0.50131  0.60480  0.74948  Biso   1.000  O
  O59      1.0000 0.49731  0.85475  0.75349  Biso   1.000  O
  O60      1.0000 0.50213  0.89521  0.50213  Biso   1.000  O
  O61      1.0000 0.75181  0.64528  0.75181  Biso   1.000  O
  O62      1.0000 0.74948  0.60480  0.50131  Biso   1.000  O
  O63      1.0000 0.75349  0.85475  0.49731  Biso   1.000  O
  O64      1.0000 0.74866  0.89521  0.74867  Biso   1.000  O
