data_image0
_cell_length_a       10.2641
_cell_length_b       5.23137
_cell_length_c       10.6799
_cell_angle_alpha    89.8222
_cell_angle_beta     78.7739
_cell_angle_gamma    90.092

_symmetry_space_group_name_H-M    "P 1"
_symmetry_int_tables_number       1

loop_
  _symmetry_equiv_pos_as_xyz
  'x, y, z'

loop_
  _atom_site_label
  _atom_site_occupancy
  _atom_site_fract_x
  _atom_site_fract_y
  _atom_site_fract_z
  _atom_site_thermal_displace_type
  _atom_site_B_iso_or_equiv
  _atom_site_type_symbol
  Zr1      1.0000 0.13400  0.04126  0.14528  Biso   1.000  Zr
  Zr2      1.0000 0.12921  0.45264  0.39514  Biso   1.000  Zr
  Zr3      1.0000 0.34159  0.54923  0.07203  Biso   1.000  Zr
  Zr4      1.0000 0.35546  0.95608  0.35720  Biso   1.000  Zr
  O1       1.0000 0.03260  0.33204  0.07755  Biso   1.000  O
  O2       1.0000 0.03114  0.16126  0.32927  Biso   1.000  O
  O3       1.0000 0.46702  0.83543  0.17508  Biso   1.000  O
  O4       1.0000 0.47683  0.69219  0.43649  Biso   1.000  O
  O5       1.0000 0.27263  0.23541  0.23580  Biso   1.000  O
  O6       1.0000 0.28463  0.27428  0.47928  Biso   1.000  O
  O7       1.0000 0.20539  0.77470  0.99788  Biso   1.000  O
  O8       1.0000 0.23287  0.71307  0.25492  Biso   1.000  O
  Zr5      1.0000 0.13608  0.04627  0.64483  Biso   1.000  Zr
  Zr6      1.0000 0.13065  0.45747  0.89126  Biso   1.000  Zr
  Zr7      1.0000 0.36131  0.55358  0.60719  Biso   1.000  Zr
  Zr8      1.0000 0.35541  0.96587  0.84800  Biso   1.000  Zr
  O9       1.0000 0.03505  0.33616  0.58030  Biso   1.000  O
  O10      1.0000 0.02967  0.16490  0.82775  Biso   1.000  O
  O11      1.0000 0.46714  0.83725  0.67535  Biso   1.000  O
  O12      1.0000 0.46604  0.68495  0.91681  Biso   1.000  O
  O13      1.0000 0.27173  0.25808  0.73479  Biso   1.000  O
  O14      1.0000 0.26856  0.24282  0.98260  Biso   1.000  O
  O15      1.0000 0.22201  0.76963  0.51009  Biso   1.000  O
  O16      1.0000 0.22198  0.74431  0.75502  Biso   1.000  O
  Zr9      1.0000 0.64099  0.03731  0.15097  Biso   1.000  Zr
  Zr10     1.0000 0.65392  0.45263  0.41386  Biso   1.000  Zr
  Zr11     1.0000 0.85806  0.53913  0.10926  Biso   1.000  Zr
  Zr12     1.0000 0.85740  0.95422  0.35812  Biso   1.000  Zr
  O17      1.0000 0.52493  0.33777  0.08130  Biso   1.000  O
  O18      1.0000 0.54537  0.14560  0.33926  Biso   1.000  O
  O19      1.0000 0.96466  0.82335  0.17724  Biso   1.000  O
  O20      1.0000 0.96300  0.66679  0.42738  Biso   1.000  O
  O21      1.0000 0.78263  0.25185  0.24703  Biso   1.000  O
  O22      1.0000 0.78378  0.23560  0.50234  Biso   1.000  O
  O23      1.0000 0.72050  0.75359  0.01594  Biso   1.000  O
  O24      1.0000 0.72356  0.73501  0.26612  Biso   1.000  O
  Zr13     1.0000 0.63891  0.04689  0.65383  Biso   1.000  Zr
  Zr14     1.0000 0.63623  0.45744  0.90204  Biso   1.000  Zr
  Zr15     1.0000 0.86143  0.54755  0.61361  Biso   1.000  Zr
  Zr16     1.0000 0.85697  0.95593  0.86056  Biso   1.000  Zr
  O25      1.0000 0.53444  0.33495  0.58470  Biso   1.000  O
  O26      1.0000 0.52774  0.17943  0.83010  Biso   1.000  O
  O27      1.0000 0.96541  0.83398  0.67698  Biso   1.000  O
  O28      1.0000 0.95896  0.66197  0.92347  Biso   1.000  O
  O29      1.0000 0.77317  0.26138  0.74862  Biso   1.000  O
  O30      1.0000 0.77236  0.24162  0.99660  Biso   1.000  O
  O31      1.0000 0.72699  0.75565  0.51992  Biso   1.000  O
  O32      1.0000 0.72230  0.74714  0.76684  Biso   1.000  O
  Y1       1.0000 0.43860  0.46450  0.27908  Biso   1.000  Y
