data_image0
_cell_length_a       10.165
_cell_length_b       10.3156
_cell_length_c       5.11179
_cell_angle_alpha    89.9976
_cell_angle_beta     90.0026
_cell_angle_gamma    89.3901

_symmetry_space_group_name_H-M    "P 1"
_symmetry_int_tables_number       1

loop_
  _symmetry_equiv_pos_as_xyz
  'x, y, z'

loop_
  _atom_site_label
  _atom_site_occupancy
  _atom_site_fract_x
  _atom_site_fract_y
  _atom_site_fract_z
  _atom_site_thermal_displace_type
  _atom_site_B_iso_or_equiv
  _atom_site_type_symbol
  Zr1      1.0000 0.13668  0.97077  0.27041  Biso   1.000  Zr
  Zr2      1.0000 0.12540  0.25009  0.68776  Biso   1.000  Zr
  Zr3      1.0000 0.40302  0.25726  0.25888  Biso   1.000  Zr
  Zr4      1.0000 0.37404  0.00782  0.74573  Biso   1.000  Zr
  O1       1.0000 0.96315  0.18513  0.91900  Biso   1.000  O
  O2       1.0000 0.00093  0.11311  0.44039  Biso   1.000  O
  O3       1.0000 0.99319  0.37121  0.44184  Biso   1.000  O
  O4       1.0000 0.04240  0.42419  0.93812  Biso   1.000  O
  O5       1.0000 0.25758  0.12895  0.44187  Biso   1.000  O
  O6       1.0000 0.20837  0.07599  0.93814  Biso   1.000  O
  O7       1.0000 0.28763  0.31506  0.91902  Biso   1.000  O
  O8       1.0000 0.24986  0.38706  0.44038  Biso   1.000  O
  Zr5      1.0000 0.11410  0.52939  0.27037  Biso   1.000  Zr
  Zr6      1.0000 0.12544  0.75004  0.75850  Biso   1.000  Zr
  Zr7      1.0000 0.38250  0.73782  0.26693  Biso   1.000  Zr
  Zr8      1.0000 0.36549  0.48228  0.74272  Biso   1.000  Zr
  O9       1.0000 0.01635  0.67090  0.05327  Biso   1.000  O
  O10      1.0000 0.99271  0.62236  0.54004  Biso   1.000  O
  O11      1.0000 0.00438  0.86569  0.53081  Biso   1.000  O
  O12      1.0000 0.97779  0.91514  0.03677  Biso   1.000  O
  O13      1.0000 0.24645  0.63446  0.53067  Biso   1.000  O
  O14      1.0000 0.27293  0.58508  0.03658  Biso   1.000  O
  O15      1.0000 0.23446  0.82933  0.05323  Biso   1.000  O
  O16      1.0000 0.25811  0.87778  0.54002  Biso   1.000  O
  Zr9      1.0000 0.61777  0.98983  0.25438  Biso   1.000  Zr
  Zr10     1.0000 0.62538  0.25005  0.77135  Biso   1.000  Zr
  Zr11     1.0000 0.84776  0.24288  0.25885  Biso   1.000  Zr
  Zr12     1.0000 0.88534  0.01788  0.74273  Biso   1.000  Zr
  O17      1.0000 0.49451  0.13815  0.99451  Biso   1.000  O
  O18      1.0000 0.50223  0.10902  0.50395  Biso   1.000  O
  O19      1.0000 0.50462  0.35888  0.53076  Biso   1.000  O
  O20      1.0000 0.50979  0.39780  0.02409  Biso   1.000  O
  O21      1.0000 0.74615  0.14124  0.53071  Biso   1.000  O
  O22      1.0000 0.74100  0.10232  0.02407  Biso   1.000  O
  O23      1.0000 0.75627  0.36198  0.99443  Biso   1.000  O
  O24      1.0000 0.74854  0.39110  0.50386  Biso   1.000  O
  Zr13     1.0000 0.63304  0.51032  0.25429  Biso   1.000  Zr
  Zr14     1.0000 0.62542  0.75007  0.75539  Biso   1.000  Zr
  Zr15     1.0000 0.86833  0.76234  0.26701  Biso   1.000  Zr
  Zr16     1.0000 0.87672  0.49231  0.74564  Biso   1.000  Zr
  O25      1.0000 0.52141  0.65027  0.02944  Biso   1.000  O
  O26      1.0000 0.49631  0.60247  0.51594  Biso   1.000  O
  O27      1.0000 0.50561  0.85541  0.50996  Biso   1.000  O
  O28      1.0000 0.47817  0.89518  0.01968  Biso   1.000  O
  O29      1.0000 0.74521  0.64471  0.50996  Biso   1.000  O
  O30      1.0000 0.77264  0.60497  0.01965  Biso   1.000  O
  O31      1.0000 0.72933  0.84983  0.02964  Biso   1.000  O
  O32      1.0000 0.75450  0.89766  0.51610  Biso   1.000  O
  Yb1      1.0000 0.12539  0.25009  0.18093  Biso   1.000  Yb
