data_image0
_cell_length_a       5.12327
_cell_length_b       10.3658
_cell_length_c       10.1148
_cell_angle_alpha    90.5132
_cell_angle_beta     89.518
_cell_angle_gamma    90.8531

_symmetry_space_group_name_H-M    "P 1"
_symmetry_int_tables_number       1

loop_
  _symmetry_equiv_pos_as_xyz
  'x, y, z'

loop_
  _atom_site_label
  _atom_site_occupancy
  _atom_site_fract_x
  _atom_site_fract_y
  _atom_site_fract_z
  _atom_site_thermal_displace_type
  _atom_site_B_iso_or_equiv
  _atom_site_type_symbol
  Zr1      1.0000 0.30480  0.96733  0.14710  Biso   1.000  Zr
  Zr2      1.0000 0.23670  0.24027  0.38315  Biso   1.000  Zr
  Zr3      1.0000 0.61359  0.25656  0.11524  Biso   1.000  Zr
  Zr4      1.0000 0.75280  0.00703  0.39792  Biso   1.000  Zr
  O1       1.0000 0.89990  0.15919  0.99810  Biso   1.000  O
  O2       1.0000 0.05036  0.06726  0.27183  Biso   1.000  O
  O3       1.0000 0.89887  0.31233  0.26692  Biso   1.000  O
  O4       1.0000 0.97971  0.40596  0.99674  Biso   1.000  O
  O5       1.0000 0.53263  0.12108  0.25976  Biso   1.000  O
  O6       1.0000 0.43959  0.09564  0.99232  Biso   1.000  O
  O7       1.0000 0.47817  0.37283  0.96674  Biso   1.000  O
  O8       1.0000 0.44266  0.39817  0.24581  Biso   1.000  O
  Zr5      1.0000 0.23099  0.01597  0.64169  Biso   1.000  Zr
  Zr6      1.0000 0.19239  0.25002  0.88287  Biso   1.000  Zr
  Zr7      1.0000 0.73044  0.26293  0.63069  Biso   1.000  Zr
  Zr8      1.0000 0.75260  0.99529  0.89498  Biso   1.000  Zr
  O9       1.0000 0.98143  0.14662  0.51210  Biso   1.000  O
  O10      1.0000 0.95705  0.11162  0.75794  Biso   1.000  O
  O11      1.0000 0.02062  0.36419  0.74348  Biso   1.000  O
  O12      1.0000 0.00612  0.39330  0.49172  Biso   1.000  O
  O13      1.0000 0.44453  0.17962  0.74109  Biso   1.000  O
  O14      1.0000 0.48022  0.10823  0.50537  Biso   1.000  O
  O15      1.0000 0.49987  0.35256  0.48869  Biso   1.000  O
  O16      1.0000 0.55439  0.43007  0.71932  Biso   1.000  O
  Zr9      1.0000 0.26108  0.51160  0.10074  Biso   1.000  Zr
  Zr10     1.0000 0.31376  0.75033  0.38958  Biso   1.000  Zr
  Zr11     1.0000 0.78402  0.73703  0.13049  Biso   1.000  Zr
  Zr12     1.0000 0.74127  0.48572  0.36092  Biso   1.000  Zr
  O17      1.0000 0.03925  0.65380  0.98931  Biso   1.000  O
  O18      1.0000 0.96906  0.57167  0.22403  Biso   1.000  O
  O19      1.0000 0.09416  0.81493  0.23804  Biso   1.000  O
  O20      1.0000 0.02145  0.90361  0.00841  Biso   1.000  O
  O21      1.0000 0.50222  0.63739  0.25052  Biso   1.000  O
  O22      1.0000 0.54414  0.60998  0.00182  Biso   1.000  O
  O23      1.0000 0.52788  0.84950  0.01049  Biso   1.000  O
  O24      1.0000 0.58430  0.87814  0.26205  Biso   1.000  O
  Zr13     1.0000 0.25466  0.49731  0.60876  Biso   1.000  Zr
  Zr14     1.0000 0.27159  0.76671  0.86607  Biso   1.000  Zr
  Zr15     1.0000 0.80433  0.74514  0.61405  Biso   1.000  Zr
  Zr16     1.0000 0.77159  0.51550  0.86343  Biso   1.000  Zr
  O25      1.0000 0.03504  0.63949  0.48573  Biso   1.000  O
  O26      1.0000 0.04956  0.61527  0.73867  Biso   1.000  O
  O27      1.0000 0.98711  0.86348  0.75454  Biso   1.000  O
  O28      1.0000 0.03916  0.89326  0.50017  Biso   1.000  O
  O29      1.0000 0.55891  0.67791  0.76010  Biso   1.000  O
  O30      1.0000 0.53539  0.60680  0.50186  Biso   1.000  O
  O31      1.0000 0.54133  0.86017  0.51521  Biso   1.000  O
  O32      1.0000 0.46375  0.92739  0.77163  Biso   1.000  O
  Zn1      1.0000 0.11148  0.21685  0.14131  Biso   1.000  Zn
