data_image0
_cell_length_a       10.0678
_cell_length_b       10.4402
_cell_length_c       10.1121
_cell_angle_alpha    89.8216
_cell_angle_beta     89.6587
_cell_angle_gamma    90.0259

_symmetry_space_group_name_H-M    "P 1"
_symmetry_int_tables_number       1

loop_
  _symmetry_equiv_pos_as_xyz
  'x, y, z'

loop_
  _atom_site_label
  _atom_site_occupancy
  _atom_site_fract_x
  _atom_site_fract_y
  _atom_site_fract_z
  _atom_site_thermal_displace_type
  _atom_site_B_iso_or_equiv
  _atom_site_type_symbol
  Zr1      1.0000 0.13491  0.02062  0.11808  Biso   1.000  Zr
  Zr2      1.0000 0.13388  0.22763  0.39619  Biso   1.000  Zr
  Zr3      1.0000 0.36571  0.26450  0.12100  Biso   1.000  Zr
  Zr4      1.0000 0.36799  0.48417  0.37645  Biso   1.000  Zr
  O1       1.0000 0.99466  0.16257  0.24733  Biso   1.000  O
  O2       1.0000 0.03637  0.06389  0.46499  Biso   1.000  O
  O3       1.0000 0.46166  0.43312  0.19528  Biso   1.000  O
  O4       1.0000 0.46381  0.31708  0.44533  Biso   1.000  O
  O5       1.0000 0.26124  0.11967  0.25396  Biso   1.000  O
  O6       1.0000 0.27425  0.12962  0.50555  Biso   1.000  O
  O7       1.0000 0.23311  0.38209  0.50178  Biso   1.000  O
  O8       1.0000 0.22236  0.36727  0.25143  Biso   1.000  O
  Zr5      1.0000 0.13722  0.01407  0.63494  Biso   1.000  Zr
  Zr6      1.0000 0.13756  0.23169  0.87878  Biso   1.000  Zr
  Zr7      1.0000 0.36797  0.26674  0.62946  Biso   1.000  Zr
  Zr8      1.0000 0.36953  0.48784  0.87135  Biso   1.000  Zr
  O9       1.0000 0.03637  0.18289  0.69742  Biso   1.000  O
  O10      1.0000 0.03940  0.06007  0.93829  Biso   1.000  O
  O11      1.0000 0.46740  0.43363  0.69343  Biso   1.000  O
  O12      1.0000 0.46439  0.31554  0.93979  Biso   1.000  O
  O13      1.0000 0.27238  0.11782  0.75125  Biso   1.000  O
  O14      1.0000 0.28964  0.12271  0.99312  Biso   1.000  O
  O15      1.0000 0.23691  0.39352  0.99658  Biso   1.000  O
  O16      1.0000 0.23163  0.36794  0.74998  Biso   1.000  O
  Zr9      1.0000 0.13792  0.53184  0.12299  Biso   1.000  Zr
  Zr10     1.0000 0.13532  0.73673  0.37792  Biso   1.000  Zr
  Zr11     1.0000 0.36634  0.76825  0.12612  Biso   1.000  Zr
  Zr12     1.0000 0.36426  0.98448  0.37613  Biso   1.000  Zr
  O17      1.0000 0.03340  0.68265  0.19772  Biso   1.000  O
  O18      1.0000 0.03540  0.56774  0.44310  Biso   1.000  O
  O19      1.0000 0.46172  0.93480  0.19546  Biso   1.000  O
  O20      1.0000 0.46651  0.81688  0.44301  Biso   1.000  O
  O21      1.0000 0.27275  0.62049  0.24890  Biso   1.000  O
  O22      1.0000 0.27013  0.63216  0.49815  Biso   1.000  O
  O23      1.0000 0.23160  0.88246  0.50105  Biso   1.000  O
  O24      1.0000 0.23034  0.86814  0.24998  Biso   1.000  O
  Zr13     1.0000 0.13337  0.51470  0.62584  Biso   1.000  Zr
  Zr14     1.0000 0.13238  0.73637  0.87197  Biso   1.000  Zr
  Zr15     1.0000 0.36933  0.76424  0.62302  Biso   1.000  Zr
  Zr16     1.0000 0.37081  0.98023  0.87376  Biso   1.000  Zr
  O25      1.0000 0.03703  0.68450  0.69031  Biso   1.000  O
  O26      1.0000 0.03513  0.56874  0.94512  Biso   1.000  O
  O27      1.0000 0.46866  0.93175  0.69081  Biso   1.000  O
  O28      1.0000 0.46967  0.81690  0.94834  Biso   1.000  O
  O29      1.0000 0.26874  0.61670  0.74731  Biso   1.000  O
  O30      1.0000 0.26937  0.63864  0.99706  Biso   1.000  O
  O31      1.0000 0.23059  0.88162  0.99893  Biso   1.000  O
  O32      1.0000 0.23647  0.86506  0.74942  Biso   1.000  O
  Zr17     1.0000 0.62878  0.01090  0.12052  Biso   1.000  Zr
  Zr18     1.0000 0.62997  0.23241  0.37553  Biso   1.000  Zr
  Zr19     1.0000 0.84391  0.26168  0.12187  Biso   1.000  Zr
  Zr20     1.0000 0.86838  0.48339  0.37501  Biso   1.000  Zr
  O33      1.0000 0.53039  0.18254  0.19200  Biso   1.000  O
  O34      1.0000 0.53434  0.06616  0.44327  Biso   1.000  O
  O35      1.0000 0.97033  0.42127  0.18446  Biso   1.000  O
  O36      1.0000 0.96987  0.32369  0.45446  Biso   1.000  O
  O37      1.0000 0.75371  0.11312  0.24432  Biso   1.000  O
  O38      1.0000 0.77137  0.13788  0.49365  Biso   1.000  O
  O39      1.0000 0.73222  0.38476  0.49709  Biso   1.000  O
  O40      1.0000 0.72818  0.36765  0.24967  Biso   1.000  O
  Zr21     1.0000 0.63747  0.01447  0.62031  Biso   1.000  Zr
  Zr22     1.0000 0.63190  0.23248  0.87018  Biso   1.000  Zr
  Zr23     1.0000 0.86810  0.26571  0.62718  Biso   1.000  Zr
  Zr24     1.0000 0.86655  0.48221  0.87586  Biso   1.000  Zr
  O41      1.0000 0.53830  0.18342  0.69044  Biso   1.000  O
  O42      1.0000 0.54177  0.06296  0.93783  Biso   1.000  O
  O43      1.0000 0.96489  0.43503  0.69677  Biso   1.000  O
  O44      1.0000 0.95433  0.31347  0.93652  Biso   1.000  O
  O45      1.0000 0.77128  0.11489  0.74494  Biso   1.000  O
  O46      1.0000 0.76852  0.12966  0.99484  Biso   1.000  O
  O47      1.0000 0.72309  0.38074  0.99945  Biso   1.000  O
  O48      1.0000 0.73043  0.36745  0.74751  Biso   1.000  O
  Zr25     1.0000 0.63053  0.51779  0.12636  Biso   1.000  Zr
  Zr26     1.0000 0.63687  0.73676  0.37391  Biso   1.000  Zr
  Zr27     1.0000 0.86477  0.76493  0.12320  Biso   1.000  Zr
  Zr28     1.0000 0.87764  0.99479  0.36321  Biso   1.000  Zr
  O49      1.0000 0.53653  0.68511  0.19513  Biso   1.000  O
  O50      1.0000 0.53519  0.56764  0.44439  Biso   1.000  O
  O51      1.0000 0.96610  0.93034  0.18618  Biso   1.000  O
  O52      1.0000 0.96627  0.82078  0.43973  Biso   1.000  O
  O53      1.0000 0.77119  0.61439  0.24731  Biso   1.000  O
  O54      1.0000 0.77073  0.63373  0.49612  Biso   1.000  O
  O55      1.0000 0.73555  0.88717  0.49347  Biso   1.000  O
  O56      1.0000 0.73182  0.86598  0.24491  Biso   1.000  O
  Zr29     1.0000 0.63704  0.51604  0.62386  Biso   1.000  Zr
  Zr30     1.0000 0.63679  0.73316  0.87366  Biso   1.000  Zr
  Zr31     1.0000 0.86819  0.76753  0.62024  Biso   1.000  Zr
  Zr32     1.0000 0.86707  0.98195  0.87237  Biso   1.000  Zr
  O57      1.0000 0.53542  0.68158  0.69633  Biso   1.000  O
  O58      1.0000 0.53511  0.56776  0.94694  Biso   1.000  O
  O59      1.0000 0.96873  0.92841  0.69879  Biso   1.000  O
  O60      1.0000 0.96330  0.81355  0.94308  Biso   1.000  O
  O61      1.0000 0.77095  0.61691  0.74679  Biso   1.000  O
  O62      1.0000 0.76854  0.63076  0.99815  Biso   1.000  O
  O63      1.0000 0.73170  0.88048  0.99605  Biso   1.000  O
  O64      1.0000 0.73243  0.86586  0.74520  Biso   1.000  O
  Zn1      1.0000 0.09766  0.27663  0.12952  Biso   1.000  Zn
