data_image0
_cell_length_a       5.13818
_cell_length_b       10.1418
_cell_length_c       10.1418
_cell_angle_alpha    90
_cell_angle_beta     90
_cell_angle_gamma    90

_symmetry_space_group_name_H-M    "P 1"
_symmetry_int_tables_number       1

loop_
  _symmetry_equiv_pos_as_xyz
  'x, y, z'

loop_
  _atom_site_label
  _atom_site_occupancy
  _atom_site_fract_x
  _atom_site_fract_y
  _atom_site_fract_z
  _atom_site_thermal_displace_type
  _atom_site_B_iso_or_equiv
  _atom_site_type_symbol
  Zr1      1.0000 0.25079  0.98216  0.12539  Biso   1.000  Zr
  Zr2      1.0000 0.25079  0.25007  0.39330  Biso   1.000  Zr
  Zr3      1.0000 0.75079  0.25008  0.12540  Biso   1.000  Zr
  Zr4      1.0000 0.74960  0.00333  0.37214  Biso   1.000  Zr
  O1       1.0000 0.98523  0.12703  0.00235  Biso   1.000  O
  O2       1.0000 0.02168  0.12026  0.25522  Biso   1.000  O
  O3       1.0000 0.98524  0.37312  0.24844  Biso   1.000  O
  O4       1.0000 0.02168  0.37989  0.99557  Biso   1.000  O
  O5       1.0000 0.51635  0.12703  0.24844  Biso   1.000  O
  O6       1.0000 0.47990  0.12026  0.99557  Biso   1.000  O
  O7       1.0000 0.51635  0.37312  0.00235  Biso   1.000  O
  O8       1.0000 0.47990  0.37989  0.25522  Biso   1.000  O
  Zr5      1.0000 0.25079  0.99598  0.62540  Biso   1.000  Zr
  Zr6      1.0000 0.25079  0.25008  0.85749  Biso   1.000  Zr
  Zr7      1.0000 0.75079  0.25008  0.62539  Biso   1.000  Zr
  Zr8      1.0000 0.75198  0.00333  0.87865  Biso   1.000  Zr
  O9       1.0000 0.96778  0.13074  0.50364  Biso   1.000  O
  O10      1.0000 0.02921  0.11516  0.75129  Biso   1.000  O
  O11      1.0000 0.96778  0.36941  0.74715  Biso   1.000  O
  O12      1.0000 0.02921  0.38499  0.49951  Biso   1.000  O
  O13      1.0000 0.53380  0.13074  0.74715  Biso   1.000  O
  O14      1.0000 0.47238  0.11516  0.49951  Biso   1.000  O
  O15      1.0000 0.53380  0.36941  0.50364  Biso   1.000  O
  O16      1.0000 0.47238  0.38499  0.75128  Biso   1.000  O
  Zr9      1.0000 0.25079  0.51799  0.12540  Biso   1.000  Zr
  Zr10     1.0000 0.25079  0.75007  0.37949  Biso   1.000  Zr
  Zr11     1.0000 0.75079  0.75007  0.12540  Biso   1.000  Zr
  Zr12     1.0000 0.75198  0.49682  0.37214  Biso   1.000  Zr
  O17      1.0000 0.96778  0.62832  0.00607  Biso   1.000  O
  O18      1.0000 0.02921  0.62419  0.26031  Biso   1.000  O
  O19      1.0000 0.96778  0.87183  0.24472  Biso   1.000  O
  O20      1.0000 0.02920  0.87596  0.99048  Biso   1.000  O
  O21      1.0000 0.53380  0.62832  0.24472  Biso   1.000  O
  O22      1.0000 0.47238  0.62419  0.99048  Biso   1.000  O
  O23      1.0000 0.53380  0.87183  0.00607  Biso   1.000  O
  O24      1.0000 0.47238  0.87596  0.26031  Biso   1.000  O
  Zr13     1.0000 0.25079  0.50417  0.62540  Biso   1.000  Zr
  Zr14     1.0000 0.25079  0.75007  0.87130  Biso   1.000  Zr
  Zr15     1.0000 0.75079  0.75008  0.62540  Biso   1.000  Zr
  Zr16     1.0000 0.74960  0.49682  0.87865  Biso   1.000  Zr
  O25      1.0000 0.96458  0.63052  0.50584  Biso   1.000  O
  O26      1.0000 0.03879  0.61678  0.75869  Biso   1.000  O
  O27      1.0000 0.96459  0.86963  0.74495  Biso   1.000  O
  O28      1.0000 0.03880  0.88337  0.49210  Biso   1.000  O
  O29      1.0000 0.53700  0.63052  0.74495  Biso   1.000  O
  O30      1.0000 0.46279  0.61678  0.49210  Biso   1.000  O
  O31      1.0000 0.53700  0.86963  0.50584  Biso   1.000  O
  O32      1.0000 0.46279  0.88337  0.75869  Biso   1.000  O
  Zr17     1.0000 0.25079  0.25008  0.12540  Biso   1.000  Zr
