data_image0
_cell_length_a       10.1926
_cell_length_b       5.19672
_cell_length_c       10.612
_cell_angle_alpha    90.12
_cell_angle_beta     91.2317
_cell_angle_gamma    89.487

_symmetry_space_group_name_H-M    "P 1"
_symmetry_int_tables_number       1

loop_
  _symmetry_equiv_pos_as_xyz
  'x, y, z'

loop_
  _atom_site_label
  _atom_site_occupancy
  _atom_site_fract_x
  _atom_site_fract_y
  _atom_site_fract_z
  _atom_site_thermal_displace_type
  _atom_site_B_iso_or_equiv
  _atom_site_type_symbol
  Zr1      1.0000 0.14018  0.04075  0.17480  Biso   1.000  Zr
  Zr2      1.0000 0.13614  0.45638  0.42505  Biso   1.000  Zr
  Zr3      1.0000 0.35090  0.53020  0.18225  Biso   1.000  Zr
  Zr4      1.0000 0.36123  0.95295  0.42735  Biso   1.000  Zr
  Zr5      1.0000 0.63956  0.02152  0.07902  Biso   1.000  Zr
  Zr6      1.0000 0.63334  0.45129  0.33361  Biso   1.000  Zr
  Zr7      1.0000 0.88115  0.55366  0.07364  Biso   1.000  Zr
  Zr8      1.0000 0.86062  0.96245  0.32662  Biso   1.000  Zr
  O1       1.0000 0.03695  0.31347  0.07547  Biso   1.000  O
  O2       1.0000 0.02503  0.19034  0.32748  Biso   1.000  O
  O3       1.0000 0.46745  0.80547  0.08637  Biso   1.000  O
  O4       1.0000 0.46703  0.67748  0.33108  Biso   1.000  O
  O5       1.0000 0.26816  0.24713  0.30219  Biso   1.000  O
  O6       1.0000 0.27467  0.24190  0.04895  Biso   1.000  O
  O7       1.0000 0.22076  0.74830  0.30229  Biso   1.000  O
  O8       1.0000 0.22516  0.74743  0.04827  Biso   1.000  O
  O9       1.0000 0.50970  0.27229  0.19024  Biso   1.000  O
  O10      1.0000 0.52585  0.17762  0.42931  Biso   1.000  O
  O11      1.0000 0.97244  0.83375  0.17391  Biso   1.000  O
  O12      1.0000 0.96917  0.68707  0.42165  Biso   1.000  O
  O13      1.0000 0.77517  0.24679  0.45170  Biso   1.000  O
  O14      1.0000 0.75994  0.26991  0.19588  Biso   1.000  O
  O15      1.0000 0.72623  0.75100  0.45479  Biso   1.000  O
  O16      1.0000 0.72881  0.74755  0.20567  Biso   1.000  O
  Zr9      1.0000 0.13938  0.04263  0.67331  Biso   1.000  Zr
  Zr10     1.0000 0.14534  0.45714  0.92139  Biso   1.000  Zr
  Zr11     1.0000 0.36285  0.54227  0.67531  Biso   1.000  Zr
  Zr12     1.0000 0.36312  0.95954  0.92540  Biso   1.000  Zr
  Zr13     1.0000 0.64016  0.03844  0.57541  Biso   1.000  Zr
  Zr14     1.0000 0.64660  0.46196  0.81017  Biso   1.000  Zr
  Zr15     1.0000 0.86454  0.54728  0.57563  Biso   1.000  Zr
  Zr16     1.0000 0.86581  0.96636  0.82739  Biso   1.000  Zr
  O17      1.0000 0.03129  0.32298  0.57916  Biso   1.000  O
  O18      1.0000 0.03342  0.18269  0.82852  Biso   1.000  O
  O19      1.0000 0.47347  0.80855  0.58031  Biso   1.000  O
  O20      1.0000 0.47650  0.68867  0.83143  Biso   1.000  O
  O21      1.0000 0.27696  0.24876  0.79802  Biso   1.000  O
  O22      1.0000 0.27358  0.24912  0.54944  Biso   1.000  O
  O23      1.0000 0.23019  0.74968  0.79815  Biso   1.000  O
  O24      1.0000 0.22686  0.74999  0.54994  Biso   1.000  O
  O25      1.0000 0.52691  0.30603  0.67299  Biso   1.000  O
  O26      1.0000 0.52334  0.20449  0.93471  Biso   1.000  O
  O27      1.0000 0.97242  0.82404  0.67095  Biso   1.000  O
  O28      1.0000 0.97960  0.68470  0.91725  Biso   1.000  O
  O29      1.0000 0.76765  0.26706  0.95222  Biso   1.000  O
  O30      1.0000 0.78059  0.24704  0.69645  Biso   1.000  O
  O31      1.0000 0.73567  0.76228  0.94966  Biso   1.000  O
  O32      1.0000 0.73205  0.75292  0.70118  Biso   1.000  O
  Zr17     1.0000 0.61475  0.50908  0.06328  Biso   1.000  Zr
