data_image0
_cell_length_a       10.2137
_cell_length_b       5.18276
_cell_length_c       10.2698
_cell_angle_alpha    88.4635
_cell_angle_beta     87.4533
_cell_angle_gamma    87.4923

_symmetry_space_group_name_H-M    "P 1"
_symmetry_int_tables_number       1

loop_
  _symmetry_equiv_pos_as_xyz
  'x, y, z'

loop_
  _atom_site_label
  _atom_site_occupancy
  _atom_site_fract_x
  _atom_site_fract_y
  _atom_site_fract_z
  _atom_site_thermal_displace_type
  _atom_site_B_iso_or_equiv
  _atom_site_type_symbol
  La1      1.0000 0.13342  0.99126  0.13133  Biso   1.000  La
  Hf1      1.0000 0.12003  0.97147  0.62884  Biso   1.000  Hf
  Hf2      1.0000 0.62259  0.03171  0.11987  Biso   1.000  Hf
  Hf3      1.0000 0.63724  0.06622  0.64201  Biso   1.000  Hf
  Hf4      1.0000 0.12796  0.47051  0.38346  Biso   1.000  Hf
  Hf5      1.0000 0.11298  0.43631  0.86174  Biso   1.000  Hf
  La2      1.0000 0.61697  0.51114  0.37231  Biso   1.000  La
  Hf6      1.0000 0.63038  0.53106  0.87497  Biso   1.000  Hf
  Hf7      1.0000 0.37453  0.50430  0.13728  Biso   1.000  Hf
  Hf8      1.0000 0.38139  0.50669  0.64301  Biso   1.000  Hf
  Hf9      1.0000 0.88986  0.50493  0.14029  Biso   1.000  Hf
  Hf10     1.0000 0.85853  0.56454  0.61368  Biso   1.000  Hf
  Hf11     1.0000 0.37588  0.99812  0.36625  Biso   1.000  Hf
  Hf12     1.0000 0.36890  0.99587  0.86075  Biso   1.000  Hf
  Hf13     1.0000 0.86045  0.99782  0.36343  Biso   1.000  Hf
  Hf14     1.0000 0.89175  0.93850  0.89001  Biso   1.000  Hf
  O1       1.0000 0.97844  0.23791  0.00956  Biso   1.000  O 
  O2       1.0000 0.01391  0.34097  0.54308  Biso   1.000  O 
  O3       1.0000 0.52682  0.37251  0.02779  Biso   1.000  O 
  O4       1.0000 0.48987  0.22615  0.52603  Biso   1.000  O 
  O5       1.0000 0.99466  0.23901  0.28370  Biso   1.000  O 
  O6       1.0000 0.01379  0.15610  0.77686  Biso   1.000  O 
  O7       1.0000 0.49677  0.22698  0.25565  Biso   1.000  O 
  O8       1.0000 0.49917  0.27046  0.77734  Biso   1.000  O 
  O9       1.0000 0.99483  0.71099  0.26725  Biso   1.000  O 
  O10      1.0000 0.99413  0.67490  0.74771  Biso   1.000  O 
  O11      1.0000 0.49513  0.76383  0.21645  Biso   1.000  O 
  O12      1.0000 0.50395  0.76221  0.73042  Biso   1.000  O 
  O13      1.0000 0.02277  0.71038  0.99656  Biso   1.000  O 
  O14      1.0000 0.97702  0.84847  0.50855  Biso   1.000  O 
  O15      1.0000 0.53952  0.87765  0.96141  Biso   1.000  O 
  O16      1.0000 0.44413  0.72721  0.48738  Biso   1.000  O 
  O17      1.0000 0.25373  0.27526  0.24791  Biso   1.000  O 
  O18      1.0000 0.25103  0.23232  0.72636  Biso   1.000  O 
  O19      1.0000 0.75576  0.26347  0.21989  Biso   1.000  O 
  O20      1.0000 0.73634  0.34682  0.72665  Biso   1.000  O 
  O21      1.0000 0.26052  0.27619  0.97760  Biso   1.000  O 
  O22      1.0000 0.22351  0.12957  0.47579  Biso   1.000  O 
  O23      1.0000 0.73673  0.16271  0.96056  Biso   1.000  O 
  O24      1.0000 0.77222  0.26522  0.49398  Biso   1.000  O 
  O25      1.0000 0.30601  0.77491  0.01621  Biso   1.000  O 
  O26      1.0000 0.21066  0.62471  0.54209  Biso   1.000  O 
  O27      1.0000 0.77301  0.65533  0.99553  Biso   1.000  O 
  O28      1.0000 0.72739  0.79257  0.50716  Biso   1.000  O 
  O29      1.0000 0.25530  0.73847  0.28710  Biso   1.000  O 
  O30      1.0000 0.24635  0.74057  0.77306  Biso   1.000  O 
  O31      1.0000 0.75555  0.79150  0.23663  Biso   1.000  O 
  O32      1.0000 0.75622  0.82780  0.75606  Biso   1.000  O 
