data_image0
_cell_length_a       10.1981
_cell_length_b       10.4222
_cell_length_c       5.30371
_cell_angle_alpha    88.8518
_cell_angle_beta     81.3274
_cell_angle_gamma    90

_symmetry_space_group_name_H-M    "P 1"
_symmetry_int_tables_number       1

loop_
  _symmetry_equiv_pos_as_xyz
  'x, y, z'

loop_
  _atom_site_label
  _atom_site_occupancy
  _atom_site_fract_x
  _atom_site_fract_y
  _atom_site_fract_z
  _atom_site_thermal_displace_type
  _atom_site_B_iso_or_equiv
  _atom_site_type_symbol
  La1      1.0000 0.12508  0.00875  0.28584  Biso   1.000  La
  Hf1      1.0000 0.14154  0.51892  0.28917  Biso   1.000  Hf
  Hf2      1.0000 0.63339  0.02639  0.29253  Biso   1.000  Hf
  Hf3      1.0000 0.63003  0.51362  0.27592  Biso   1.000  Hf
  Hf4      1.0000 0.13599  0.23436  0.79507  Biso   1.000  Hf
  Hf5      1.0000 0.14758  0.72284  0.78517  Biso   1.000  Hf
  Hf6      1.0000 0.63498  0.23272  0.78614  Biso   1.000  Hf
  La2      1.0000 0.61884  0.74585  0.75002  Biso   1.000  La
  Hf7      1.0000 0.35539  0.26518  0.20966  Biso   1.000  Hf
  Hf8      1.0000 0.36881  0.77337  0.22874  Biso   1.000  Hf
  Hf9      1.0000 0.85984  0.27908  0.20447  Biso   1.000  Hf
  Hf10     1.0000 0.86189  0.74424  0.15449  Biso   1.000  Hf
  Hf11     1.0000 0.35951  0.47215  0.70475  Biso   1.000  Hf
  Hf12     1.0000 0.36251  0.98335  0.72699  Biso   1.000  Hf
  Hf13     1.0000 0.85972  0.48084  0.68815  Biso   1.000  Hf
  Hf14     1.0000 0.86070  0.99478  0.75465  Biso   1.000  Hf
  Hf15     1.0000 0.03141  0.18829  0.16115  Biso   1.000  Hf
  Hf16     1.0000 0.04213  0.67002  0.14875  Biso   1.000  Hf
  Hf17     1.0000 0.52763  0.15689  0.14226  Biso   1.000  Hf
  Hf18     1.0000 0.52642  0.65749  0.14999  Biso   1.000  Hf
  Hf19     1.0000 0.03224  0.08244  0.70132  Biso   1.000  Hf
  Hf20     1.0000 0.03390  0.58436  0.64725  Biso   1.000  Hf
  Hf21     1.0000 0.53527  0.09117  0.63673  Biso   1.000  Hf
  Hf22     1.0000 0.53095  0.56491  0.63479  Biso   1.000  Hf
  Hf23     1.0000 0.46107  0.40457  0.34093  Biso   1.000  Hf
  Hf24     1.0000 0.49500  0.88115  0.43907  Biso   1.000  Hf
  Hf25     1.0000 0.96279  0.42584  0.33003  Biso   1.000  Hf
  Hf26     1.0000 0.90892  0.91467  0.36482  Biso   1.000  Hf
  Hf27     1.0000 0.46148  0.32849  0.84604  Biso   1.000  Hf
  Hf28     1.0000 0.47355  0.89233  0.96002  Biso   1.000  Hf
  Hf29     1.0000 0.95957  0.33590  0.83174  Biso   1.000  Hf
  Hf30     1.0000 0.97508  0.83674  0.83409  Biso   1.000  Hf
  Hf31     1.0000 0.27887  0.13083  0.49016  Biso   1.000  Hf
  Hf32     1.0000 0.27466  0.62365  0.48061  Biso   1.000  Hf
  Hf33     1.0000 0.77471  0.12862  0.48671  Biso   1.000  Hf
  Hf34     1.0000 0.77522  0.62069  0.43760  Biso   1.000  Hf
  Hf35     1.0000 0.27554  0.12441  0.97310  Biso   1.000  Hf
  Hf36     1.0000 0.28033  0.61458  0.97678  Biso   1.000  Hf
  Hf37     1.0000 0.77067  0.13040  0.99208  Biso   1.000  Hf
  Hf38     1.0000 0.77833  0.61695  0.95107  Biso   1.000  Hf
  Hf39     1.0000 0.22200  0.37735  0.02014  Biso   1.000  Hf
  Hf40     1.0000 0.23527  0.86001  0.00612  Biso   1.000  Hf
  Hf41     1.0000 0.71908  0.37961  0.00825  Biso   1.000  Hf
  Hf42     1.0000 0.73550  0.88776  0.03032  Biso   1.000  Hf
  Hf43     1.0000 0.21891  0.37089  0.51753  Biso   1.000  Hf
  Hf44     1.0000 0.24411  0.86387  0.52841  Biso   1.000  Hf
  Hf45     1.0000 0.72297  0.36860  0.50961  Biso   1.000  Hf
  Hf46     1.0000 0.77573  0.88236  0.48466  Biso   1.000  Hf
