data_image0
_cell_length_a       10.2781
_cell_length_b       5.20846
_cell_length_c       10.4473
_cell_angle_alpha    90.1383
_cell_angle_beta     81.5658
_cell_angle_gamma    90.7328

_symmetry_space_group_name_H-M    "P 1"
_symmetry_int_tables_number       1

loop_
  _symmetry_equiv_pos_as_xyz
  'x, y, z'

loop_
  _atom_site_label
  _atom_site_occupancy
  _atom_site_fract_x
  _atom_site_fract_y
  _atom_site_fract_z
  _atom_site_thermal_displace_type
  _atom_site_B_iso_or_equiv
  _atom_site_type_symbol
  La1      1.0000 0.12126  0.01666  0.13922  Biso   1.000  La
  Hf1      1.0000 0.14131  0.04441  0.64675  Biso   1.000  Hf
  Hf2      1.0000 0.63837  0.03433  0.14663  Biso   1.000  Hf
  Hf3      1.0000 0.64877  0.03862  0.63976  Biso   1.000  Hf
  Hf4      1.0000 0.14022  0.45211  0.39642  Biso   1.000  Hf
  Hf5      1.0000 0.13461  0.47815  0.89222  Biso   1.000  Hf
  Hf6      1.0000 0.63074  0.45387  0.39889  Biso   1.000  Hf
  Hf7      1.0000 0.64905  0.46353  0.89361  Biso   1.000  Hf
  Hf8      1.0000 0.36540  0.52183  0.10783  Biso   1.000  Hf
  Hf9      1.0000 0.35983  0.54785  0.60363  Biso   1.000  Hf
  Hf10     1.0000 0.85093  0.53650  0.10634  Biso   1.000  Hf
  Hf11     1.0000 0.86924  0.54616  0.60107  Biso   1.000  Hf
  Hf12     1.0000 0.35871  0.95557  0.35330  Biso   1.000  Hf
  La2      1.0000 0.37875  0.98330  0.86082  Biso   1.000  La
  Hf13     1.0000 0.85122  0.96140  0.36021  Biso   1.000  Hf
  Hf14     1.0000 0.86162  0.96570  0.85333  Biso   1.000  Hf
  Hf15     1.0000 0.03254  0.41361  0.08917  Biso   1.000  Hf
  Hf16     1.0000 0.04080  0.35261  0.58423  Biso   1.000  Hf
  Hf17     1.0000 0.54204  0.33527  0.08391  Biso   1.000  Hf
  Hf18     1.0000 0.53433  0.33523  0.58692  Biso   1.000  Hf
  Hf19     1.0000 0.02328  0.16319  0.34625  Biso   1.000  Hf
  Hf20     1.0000 0.03854  0.15524  0.83908  Biso   1.000  Hf
  Hf21     1.0000 0.53500  0.14811  0.33330  Biso   1.000  Hf
  Hf22     1.0000 0.58548  0.12194  0.83185  Biso   1.000  Hf
  Hf23     1.0000 0.46147  0.84475  0.16092  Biso   1.000  Hf
  Hf24     1.0000 0.47673  0.83682  0.65379  Biso   1.000  Hf
  Hf25     1.0000 0.91452  0.87809  0.16811  Biso   1.000  Hf
  Hf26     1.0000 0.96500  0.85189  0.66667  Biso   1.000  Hf
  Hf27     1.0000 0.45922  0.64742  0.41580  Biso   1.000  Hf
  Hf28     1.0000 0.46745  0.58634  0.91081  Biso   1.000  Hf
  Hf29     1.0000 0.96566  0.66478  0.41307  Biso   1.000  Hf
  Hf30     1.0000 0.95794  0.66472  0.91607  Biso   1.000  Hf
  Hf31     1.0000 0.27926  0.25198  0.24822  Biso   1.000  Hf
  Hf32     1.0000 0.26666  0.28251  0.73707  Biso   1.000  Hf
  Hf33     1.0000 0.76681  0.26680  0.24654  Biso   1.000  Hf
  Hf34     1.0000 0.79355  0.26093  0.73357  Biso   1.000  Hf
  Hf35     1.0000 0.27487  0.23832  0.49172  Biso   1.000  Hf
  Hf36     1.0000 0.26150  0.27167  0.99481  Biso   1.000  Hf
  Hf37     1.0000 0.77202  0.24534  0.49139  Biso   1.000  Hf
  Hf38     1.0000 0.77840  0.24038  0.99255  Biso   1.000  Hf
  Hf39     1.0000 0.23851  0.72827  0.00526  Biso   1.000  Hf
  Hf40     1.0000 0.22516  0.76163  0.50834  Biso   1.000  Hf
  Hf41     1.0000 0.72158  0.75967  0.00739  Biso   1.000  Hf
  Hf42     1.0000 0.72796  0.75469  0.50856  Biso   1.000  Hf
  Hf43     1.0000 0.23337  0.71750  0.26300  Biso   1.000  Hf
  Hf44     1.0000 0.22075  0.74801  0.75184  Biso   1.000  Hf
  Hf45     1.0000 0.70643  0.73909  0.26638  Biso   1.000  Hf
  Hf46     1.0000 0.73317  0.73322  0.75342  Biso   1.000  Hf
