data_image0
_cell_length_a       10.196
_cell_length_b       5.16709
_cell_length_c       10.4217
_cell_angle_alpha    90.0313
_cell_angle_beta     81.1169
_cell_angle_gamma    90.1933

_symmetry_space_group_name_H-M    "P 1"
_symmetry_int_tables_number       1

loop_
  _symmetry_equiv_pos_as_xyz
  'x, y, z'

loop_
  _atom_site_label
  _atom_site_occupancy
  _atom_site_fract_x
  _atom_site_fract_y
  _atom_site_fract_z
  _atom_site_thermal_displace_type
  _atom_site_B_iso_or_equiv
  _atom_site_type_symbol
  La1      1.0000 0.12626  0.00746  0.13735  Biso   1.000  La
  Hf1      1.0000 0.13695  0.04245  0.64641  Biso   1.000  Hf
  Hf2      1.0000 0.65446  0.04239  0.14782  Biso   1.000  Hf
  Hf3      1.0000 0.63898  0.04381  0.64691  Biso   1.000  Hf
  Hf4      1.0000 0.13822  0.45077  0.39420  Biso   1.000  Hf
  Hf5      1.0000 0.13980  0.46571  0.89160  Biso   1.000  Hf
  Hf6      1.0000 0.63088  0.45547  0.39768  Biso   1.000  Hf
  Hf7      1.0000 0.64316  0.45953  0.89630  Biso   1.000  Hf
  Hf8      1.0000 0.36213  0.50466  0.09785  Biso   1.000  Hf
  Hf9      1.0000 0.35840  0.54068  0.60316  Biso   1.000  Hf
  Hf10     1.0000 0.86046  0.54369  0.10485  Biso   1.000  Hf
  Hf11     1.0000 0.86293  0.54303  0.60342  Biso   1.000  Hf
  Hf12     1.0000 0.35790  0.96294  0.35909  Biso   1.000  Hf
  Hf13     1.0000 0.36837  0.95202  0.85095  Biso   1.000  Hf
  Hf14     1.0000 0.85314  0.96075  0.36133  Biso   1.000  Hf
  Hf15     1.0000 0.86226  0.95865  0.85380  Biso   1.000  Hf
  Hf16     1.0000 0.04656  0.42009  0.08969  Biso   1.000  Hf
  Hf17     1.0000 0.03888  0.35436  0.58632  Biso   1.000  Hf
  Hf18     1.0000 0.53824  0.31902  0.08036  Biso   1.000  Hf
  Hf19     1.0000 0.52913  0.32671  0.57850  Biso   1.000  Hf
  Hf20     1.0000 0.02661  0.15391  0.34841  Biso   1.000  Hf
  Hf21     1.0000 0.03998  0.14722  0.83942  Biso   1.000  Hf
  Hf22     1.0000 0.53408  0.15116  0.32423  Biso   1.000  Hf
  Hf23     1.0000 0.53836  0.17060  0.82694  Biso   1.000  Hf
  Hf24     1.0000 0.46792  0.82600  0.67192  Biso   1.000  Hf
  Hf25     1.0000 0.91292  0.89073  0.16427  Biso   1.000  Hf
  Hf26     1.0000 0.96067  0.85197  0.66611  Biso   1.000  Hf
  Hf27     1.0000 0.45919  0.65897  0.42008  Biso   1.000  Hf
  Hf28     1.0000 0.48050  0.68253  0.93166  Biso   1.000  Hf
  Hf29     1.0000 0.96294  0.65671  0.41176  Biso   1.000  Hf
  Hf30     1.0000 0.96190  0.65429  0.91280  Biso   1.000  Hf
  Hf31     1.0000 0.27947  0.24554  0.24515  Biso   1.000  Hf
  Hf32     1.0000 0.27540  0.25863  0.73862  Biso   1.000  Hf
  Hf33     1.0000 0.77162  0.27502  0.24696  Biso   1.000  Hf
  Hf34     1.0000 0.77882  0.26012  0.74078  Biso   1.000  Hf
  Hf35     1.0000 0.27241  0.24073  0.49245  Biso   1.000  Hf
  Hf36     1.0000 0.28492  0.24113  0.98050  Biso   1.000  Hf
  Hf37     1.0000 0.77019  0.24379  0.49450  Biso   1.000  Hf
  Hf38     1.0000 0.78013  0.24458  0.99185  Biso   1.000  Hf
  Hf39     1.0000 0.24574  0.73075  0.99055  Biso   1.000  Hf
  Hf40     1.0000 0.21992  0.76062  0.50856  Biso   1.000  Hf
  Hf41     1.0000 0.72490  0.75953  0.00827  Biso   1.000  Hf
  Hf42     1.0000 0.72282  0.75613  0.51149  Biso   1.000  Hf
  Hf43     1.0000 0.25242  0.71567  0.25459  Biso   1.000  Hf
  Hf44     1.0000 0.22435  0.74408  0.75436  Biso   1.000  Hf
  Hf45     1.0000 0.70314  0.74037  0.26679  Biso   1.000  Hf
  Hf46     1.0000 0.72620  0.74091  0.75859  Biso   1.000  Hf
