data_image0
_cell_length_a       5.07962
_cell_length_b       10.3318
_cell_length_c       10.4751
_cell_angle_alpha    90.093
_cell_angle_beta     81.2806
_cell_angle_gamma    90.0101

_symmetry_space_group_name_H-M    "P 1"
_symmetry_int_tables_number       1

loop_
  _symmetry_equiv_pos_as_xyz
  'x, y, z'

loop_
  _atom_site_label
  _atom_site_occupancy
  _atom_site_fract_x
  _atom_site_fract_y
  _atom_site_fract_z
  _atom_site_thermal_displace_type
  _atom_site_B_iso_or_equiv
  _atom_site_type_symbol
  La1      1.0000 0.26247  0.01303  0.13806  Biso   1.000  La
  Hf1      1.0000 0.28211  0.02097  0.64611  Biso   1.000  Hf
  Hf2      1.0000 0.27196  0.52119  0.14542  Biso   1.000  Hf
  Hf3      1.0000 0.28047  0.52201  0.64480  Biso   1.000  Hf
  Hf4      1.0000 0.27342  0.22871  0.39798  Biso   1.000  Hf
  Hf5      1.0000 0.28861  0.23524  0.88428  Biso   1.000  Hf
  Hf6      1.0000 0.27120  0.72536  0.39708  Biso   1.000  Hf
  Hf7      1.0000 0.28880  0.72859  0.89203  Biso   1.000  Hf
  Hf8      1.0000 0.69583  0.27471  0.10648  Biso   1.000  Hf
  Hf9      1.0000 0.72785  0.27131  0.60263  Biso   1.000  Hf
  Hf10     1.0000 0.72318  0.76486  0.10390  Biso   1.000  Hf
  Hf11     1.0000 0.72397  0.77229  0.60334  Biso   1.000  Hf
  Hf12     1.0000 0.71881  0.47769  0.35412  Biso   1.000  Hf
  Hf13     1.0000 0.73437  0.47811  0.85423  Biso   1.000  Hf
  Hf14     1.0000 0.70926  0.97911  0.35779  Biso   1.000  Hf
  Hf15     1.0000 0.73442  0.97802  0.85339  Biso   1.000  Hf
  Hf16     1.0000 0.07526  0.17206  0.58597  Biso   1.000  Hf
  Hf17     1.0000 0.08186  0.67434  0.08142  Biso   1.000  Hf
  Hf18     1.0000 0.07025  0.66867  0.58216  Biso   1.000  Hf
  Hf19     1.0000 0.05264  0.08419  0.34249  Biso   1.000  Hf
  Hf20     1.0000 0.08405  0.07980  0.83778  Biso   1.000  Hf
  Hf21     1.0000 0.06523  0.58103  0.32749  Biso   1.000  Hf
  Hf22     1.0000 0.08021  0.57769  0.83103  Biso   1.000  Hf
  Hf23     1.0000 0.92835  0.41163  0.17149  Biso   1.000  Hf
  Hf24     1.0000 0.93481  0.41773  0.67283  Biso   1.000  Hf
  Hf25     1.0000 0.85733  0.93130  0.16725  Biso   1.000  Hf
  Hf26     1.0000 0.93200  0.92023  0.67156  Biso   1.000  Hf
  Hf27     1.0000 0.92815  0.33395  0.42342  Biso   1.000  Hf
  Hf28     1.0000 0.93315  0.32848  0.92640  Biso   1.000  Hf
  Hf29     1.0000 0.92386  0.83077  0.42019  Biso   1.000  Hf
  Hf30     1.0000 0.95189  0.83370  0.92056  Biso   1.000  Hf
  Hf31     1.0000 0.56018  0.14078  0.24803  Biso   1.000  Hf
  Hf32     1.0000 0.55903  0.12959  0.73721  Biso   1.000  Hf
  Hf33     1.0000 0.55128  0.62335  0.23880  Biso   1.000  Hf
  Hf34     1.0000 0.55856  0.62889  0.73885  Biso   1.000  Hf
  Hf35     1.0000 0.54563  0.12091  0.49344  Biso   1.000  Hf
  Hf36     1.0000 0.55781  0.13162  0.98125  Biso   1.000  Hf
  Hf37     1.0000 0.55130  0.62075  0.49016  Biso   1.000  Hf
  Hf38     1.0000 0.55730  0.61637  0.98934  Biso   1.000  Hf
  Hf39     1.0000 0.44333  0.38125  0.00723  Biso   1.000  Hf
  Hf40     1.0000 0.44798  0.38036  0.50912  Biso   1.000  Hf
  Hf41     1.0000 0.48135  0.86644  0.99481  Biso   1.000  Hf
  Hf42     1.0000 0.44403  0.87958  0.51166  Biso   1.000  Hf
  Hf43     1.0000 0.43706  0.37465  0.25922  Biso   1.000  Hf
  Hf44     1.0000 0.45738  0.37285  0.75644  Biso   1.000  Hf
  Hf45     1.0000 0.43780  0.85780  0.26693  Biso   1.000  Hf
  Hf46     1.0000 0.45506  0.87116  0.75627  Biso   1.000  Hf
