data_image0
_cell_length_a       10.1886
_cell_length_b       10.3422
_cell_length_c       10.47
_cell_angle_alpha    89.867
_cell_angle_beta     80.2964
_cell_angle_gamma    89.8433

_symmetry_space_group_name_H-M    "P 1"
_symmetry_int_tables_number       1

loop_
  _symmetry_equiv_pos_as_xyz
  'x, y, z'

loop_
  _atom_site_label
  _atom_site_occupancy
  _atom_site_fract_x
  _atom_site_fract_y
  _atom_site_fract_z
  _atom_site_thermal_displace_type
  _atom_site_B_iso_or_equiv
  _atom_site_type_symbol
  Hf1      1.0000 0.15155  0.00315  0.15493  Biso   1.000  Hf
  Hf2      1.0000 0.13730  0.01779  0.64805  Biso   1.000  Hf
  Hf3      1.0000 0.14383  0.52783  0.14931  Biso   1.000  Hf
  Hf4      1.0000 0.13863  0.52292  0.64457  Biso   1.000  Hf
  Hf5      1.0000 0.63192  0.01653  0.14599  Biso   1.000  Hf
  Hf6      1.0000 0.63890  0.02199  0.64743  Biso   1.000  Hf
  Hf7      1.0000 0.63996  0.51927  0.14722  Biso   1.000  Hf
  Hf8      1.0000 0.64188  0.52101  0.64390  Biso   1.000  Hf
  Hf9      1.0000 0.13893  0.23101  0.39663  Biso   1.000  Hf
  La1      1.0000 0.13655  0.24344  0.88524  Biso   1.000  La
  Hf10     1.0000 0.13916  0.72857  0.40107  Biso   1.000  Hf
  Hf11     1.0000 0.13851  0.72681  0.89500  Biso   1.000  Hf
  Hf12     1.0000 0.63792  0.22847  0.39838  Biso   1.000  Hf
  Hf13     1.0000 0.63959  0.22959  0.89626  Biso   1.000  Hf
  Hf14     1.0000 0.63896  0.72784  0.39560  Biso   1.000  Hf
  Hf15     1.0000 0.64142  0.72882  0.89599  Biso   1.000  Hf
  Hf16     1.0000 0.36220  0.27184  0.10750  Biso   1.000  Hf
  Hf17     1.0000 0.36513  0.27255  0.60138  Biso   1.000  Hf
  Hf18     1.0000 0.36643  0.76670  0.10127  Biso   1.000  Hf
  Hf19     1.0000 0.36395  0.77145  0.60637  Biso   1.000  Hf
  La2      1.0000 0.86851  0.25948  0.11070  Biso   1.000  La
  Hf20     1.0000 0.86168  0.27270  0.60549  Biso   1.000  Hf
  Hf21     1.0000 0.86266  0.76997  0.10313  Biso   1.000  Hf
  Hf22     1.0000 0.86000  0.77357  0.60177  Biso   1.000  Hf
  Hf23     1.0000 0.36213  0.47934  0.35523  Biso   1.000  Hf
  Hf24     1.0000 0.36887  0.48200  0.85319  Biso   1.000  Hf
  Hf25     1.0000 0.36277  0.98030  0.35980  Biso   1.000  Hf
  Hf26     1.0000 0.36092  0.97901  0.85486  Biso   1.000  Hf
  Hf27     1.0000 0.86435  0.48129  0.35513  Biso   1.000  Hf
  Hf28     1.0000 0.85568  0.48098  0.85193  Biso   1.000  Hf
  Hf29     1.0000 0.85888  0.98145  0.35178  Biso   1.000  Hf
  Hf30     1.0000 0.85907  0.97349  0.85276  Biso   1.000  Hf
  Hf31     1.0000 0.03559  0.16779  0.57995  Biso   1.000  Hf
  Hf32     1.0000 0.04111  0.67707  0.08438  Biso   1.000  Hf
  Hf33     1.0000 0.03630  0.67531  0.58311  Biso   1.000  Hf
  Hf34     1.0000 0.53315  0.16797  0.08178  Biso   1.000  Hf
  Hf35     1.0000 0.53743  0.16835  0.57941  Biso   1.000  Hf
  Hf36     1.0000 0.53686  0.66605  0.07840  Biso   1.000  Hf
  Hf37     1.0000 0.53762  0.66933  0.58020  Biso   1.000  Hf
  Hf38     1.0000 0.02590  0.10345  0.30253  Biso   1.000  Hf
  Hf39     1.0000 0.03433  0.06103  0.83398  Biso   1.000  Hf
  Hf40     1.0000 0.03909  0.58318  0.33701  Biso   1.000  Hf
  Hf41     1.0000 0.03971  0.57064  0.83478  Biso   1.000  Hf
  Hf42     1.0000 0.52805  0.08334  0.33240  Biso   1.000  Hf
  Hf43     1.0000 0.53264  0.08226  0.83047  Biso   1.000  Hf
  Hf44     1.0000 0.53469  0.58273  0.33115  Biso   1.000  Hf
  Hf45     1.0000 0.54002  0.58090  0.82986  Biso   1.000  Hf
  Hf46     1.0000 0.46375  0.41900  0.17306  Biso   1.000  Hf
  Hf47     1.0000 0.47361  0.41712  0.66923  Biso   1.000  Hf
  Hf48     1.0000 0.45920  0.91731  0.17278  Biso   1.000  Hf
  Hf49     1.0000 0.46599  0.91735  0.67324  Biso   1.000  Hf
  Hf50     1.0000 0.97268  0.43170  0.17219  Biso   1.000  Hf
  Hf51     1.0000 0.96373  0.42531  0.66280  Biso   1.000  Hf
  Hf52     1.0000 0.96348  0.93416  0.15659  Biso   1.000  Hf
  Hf53     1.0000 0.96107  0.92039  0.66464  Biso   1.000  Hf
  Hf54     1.0000 0.46485  0.33182  0.42066  Biso   1.000  Hf
  Hf55     1.0000 0.45956  0.32545  0.91948  Biso   1.000  Hf
  Hf56     1.0000 0.46603  0.83154  0.42197  Biso   1.000  Hf
  Hf57     1.0000 0.46779  0.83218  0.92042  Biso   1.000  Hf
  Hf58     1.0000 0.96425  0.33142  0.41982  Biso   1.000  Hf
  Hf59     1.0000 0.93225  0.31677  0.89702  Biso   1.000  Hf
  Hf60     1.0000 0.96864  0.83768  0.41538  Biso   1.000  Hf
  Hf61     1.0000 0.95971  0.82026  0.91507  Biso   1.000  Hf
  Hf62     1.0000 0.27482  0.12723  0.24722  Biso   1.000  Hf
  Hf63     1.0000 0.28392  0.12402  0.73259  Biso   1.000  Hf
  Hf64     1.0000 0.27922  0.63200  0.24351  Biso   1.000  Hf
  Hf65     1.0000 0.27701  0.63196  0.74131  Biso   1.000  Hf
  Hf66     1.0000 0.75762  0.11647  0.25162  Biso   1.000  Hf
  Hf67     1.0000 0.77426  0.12906  0.74047  Biso   1.000  Hf
  Hf68     1.0000 0.77723  0.62883  0.24034  Biso   1.000  Hf
  Hf69     1.0000 0.77715  0.63160  0.73894  Biso   1.000  Hf
  Hf70     1.0000 0.27328  0.12129  0.49163  Biso   1.000  Hf
  Hf71     1.0000 0.26218  0.11394  0.00820  Biso   1.000  Hf
  Hf72     1.0000 0.27672  0.62105  0.49275  Biso   1.000  Hf
  Hf73     1.0000 0.27972  0.62392  0.98917  Biso   1.000  Hf
  Hf74     1.0000 0.77896  0.12174  0.49120  Biso   1.000  Hf
  Hf75     1.0000 0.76319  0.10683  0.98807  Biso   1.000  Hf
  Hf76     1.0000 0.77825  0.62315  0.48902  Biso   1.000  Hf
  Hf77     1.0000 0.77833  0.62086  0.99232  Biso   1.000  Hf
  Hf78     1.0000 0.23280  0.39008  0.01702  Biso   1.000  Hf
  Hf79     1.0000 0.22319  0.37935  0.50735  Biso   1.000  Hf
  Hf80     1.0000 0.22683  0.87298  0.00872  Biso   1.000  Hf
  Hf81     1.0000 0.22562  0.87898  0.51210  Biso   1.000  Hf
  Hf82     1.0000 0.70846  0.38396  0.00826  Biso   1.000  Hf
  Hf83     1.0000 0.72653  0.37972  0.50962  Biso   1.000  Hf
  Hf84     1.0000 0.72173  0.87241  0.01182  Biso   1.000  Hf
  Hf85     1.0000 0.72420  0.88112  0.50783  Biso   1.000  Hf
  Hf86     1.0000 0.22465  0.37107  0.26198  Biso   1.000  Hf
  Hf87     1.0000 0.24063  0.38476  0.74435  Biso   1.000  Hf
  Hf88     1.0000 0.22330  0.86995  0.26255  Biso   1.000  Hf
  Hf89     1.0000 0.22501  0.87020  0.76096  Biso   1.000  Hf
  Hf90     1.0000 0.72123  0.37475  0.26712  Biso   1.000  Hf
  Hf91     1.0000 0.72241  0.37183  0.75671  Biso   1.000  Hf
  Hf92     1.0000 0.72806  0.86829  0.25914  Biso   1.000  Hf
  Hf93     1.0000 0.72252  0.86983  0.75789  Biso   1.000  Hf
