data_image0
_cell_length_a       10.2089
_cell_length_b       10.353
_cell_length_c       10.4955
_cell_angle_alpha    90.0297
_cell_angle_beta     80.541
_cell_angle_gamma    89.9168

_symmetry_space_group_name_H-M    "P 1"
_symmetry_int_tables_number       1

loop_
  _symmetry_equiv_pos_as_xyz
  'x, y, z'

loop_
  _atom_site_label
  _atom_site_occupancy
  _atom_site_fract_x
  _atom_site_fract_y
  _atom_site_fract_z
  _atom_site_thermal_displace_type
  _atom_site_B_iso_or_equiv
  _atom_site_type_symbol
  La1      1.0000 0.13401  0.01318  0.14238  Biso   1.000  La
  Hf1      1.0000 0.13355  0.01669  0.64729  Biso   1.000  Hf
  Hf2      1.0000 0.13925  0.52005  0.14494  Biso   1.000  Hf
  Hf3      1.0000 0.14015  0.51926  0.64601  Biso   1.000  Hf
  Hf4      1.0000 0.63767  0.02106  0.14639  Biso   1.000  Hf
  Hf5      1.0000 0.64356  0.01528  0.64935  Biso   1.000  Hf
  Hf6      1.0000 0.63741  0.51966  0.14552  Biso   1.000  Hf
  Hf7      1.0000 0.64067  0.52345  0.64607  Biso   1.000  Hf
  Hf8      1.0000 0.13889  0.22935  0.39773  Biso   1.000  Hf
  Hf9      1.0000 0.13551  0.23223  0.89616  Biso   1.000  Hf
  Hf10     1.0000 0.14191  0.72507  0.39754  Biso   1.000  Hf
  Hf11     1.0000 0.13951  0.72699  0.89472  Biso   1.000  Hf
  Hf12     1.0000 0.64579  0.23082  0.38793  Biso   1.000  Hf
  Hf13     1.0000 0.63830  0.22890  0.89503  Biso   1.000  Hf
  Hf14     1.0000 0.63535  0.72660  0.39646  Biso   1.000  Hf
  Hf15     1.0000 0.64156  0.72928  0.89570  Biso   1.000  Hf
  Hf16     1.0000 0.35970  0.26981  0.10406  Biso   1.000  Hf
  La2      1.0000 0.36870  0.26094  0.60926  Biso   1.000  La
  Hf17     1.0000 0.36624  0.76752  0.10384  Biso   1.000  Hf
  Hf18     1.0000 0.36006  0.77068  0.60538  Biso   1.000  Hf
  Hf19     1.0000 0.85864  0.27472  0.10095  Biso   1.000  Hf
  Hf20     1.0000 0.86040  0.27203  0.60420  Biso   1.000  Hf
  Hf21     1.0000 0.85635  0.76508  0.10387  Biso   1.000  Hf
  Hf22     1.0000 0.86341  0.76848  0.60287  Biso   1.000  Hf
  Hf23     1.0000 0.35955  0.47671  0.35147  Biso   1.000  Hf
  Hf24     1.0000 0.36327  0.48189  0.85597  Biso   1.000  Hf
  Hf25     1.0000 0.36178  0.97674  0.35484  Biso   1.000  Hf
  Hf26     1.0000 0.36166  0.97739  0.85327  Biso   1.000  Hf
  Hf27     1.0000 0.86289  0.48039  0.35352  Biso   1.000  Hf
  Hf28     1.0000 0.85971  0.47976  0.85150  Biso   1.000  Hf
  Hf29     1.0000 0.85463  0.97444  0.35844  Biso   1.000  Hf
  Hf30     1.0000 0.85971  0.97848  0.85736  Biso   1.000  Hf
  Hf31     1.0000 0.03303  0.18821  0.07600  Biso   1.000  Hf
  Hf32     1.0000 0.03485  0.17246  0.58612  Biso   1.000  Hf
  Hf33     1.0000 0.03614  0.67125  0.08053  Biso   1.000  Hf
  Hf34     1.0000 0.03574  0.66628  0.57980  Biso   1.000  Hf
  Hf35     1.0000 0.53574  0.16940  0.07894  Biso   1.000  Hf
  Hf36     1.0000 0.56994  0.17141  0.57438  Biso   1.000  Hf
  Hf37     1.0000 0.53945  0.67007  0.08086  Biso   1.000  Hf
  Hf38     1.0000 0.53836  0.67382  0.58239  Biso   1.000  Hf
  Hf39     1.0000 0.02217  0.08527  0.34481  Biso   1.000  Hf
  Hf40     1.0000 0.02704  0.08286  0.83401  Biso   1.000  Hf
  Hf41     1.0000 0.03595  0.58167  0.32927  Biso   1.000  Hf
  Hf42     1.0000 0.03253  0.58295  0.82847  Biso   1.000  Hf
  Hf43     1.0000 0.53635  0.08088  0.33177  Biso   1.000  Hf
  Hf44     1.0000 0.53448  0.08313  0.82653  Biso   1.000  Hf
  Hf45     1.0000 0.53318  0.58229  0.32818  Biso   1.000  Hf
  Hf46     1.0000 0.53956  0.58232  0.83527  Biso   1.000  Hf
  Hf47     1.0000 0.46337  0.42068  0.16523  Biso   1.000  Hf
  Hf48     1.0000 0.46562  0.43925  0.67323  Biso   1.000  Hf
  Hf49     1.0000 0.46380  0.92121  0.16785  Biso   1.000  Hf
  Hf50     1.0000 0.46348  0.92327  0.66834  Biso   1.000  Hf
  Hf51     1.0000 0.96193  0.42377  0.16808  Biso   1.000  Hf
  Hf52     1.0000 0.96383  0.42031  0.66827  Biso   1.000  Hf
  Hf53     1.0000 0.93674  0.91690  0.17676  Biso   1.000  Hf
  Hf54     1.0000 0.96132  0.91638  0.67272  Biso   1.000  Hf
  Hf55     1.0000 0.47466  0.33289  0.40330  Biso   1.000  Hf
  Hf56     1.0000 0.46494  0.33096  0.91672  Biso   1.000  Hf
  Hf57     1.0000 0.46401  0.83120  0.42302  Biso   1.000  Hf
  Hf58     1.0000 0.47345  0.83359  0.91977  Biso   1.000  Hf
  Hf59     1.0000 0.96386  0.33285  0.42055  Biso   1.000  Hf
  Hf60     1.0000 0.95938  0.33335  0.91528  Biso   1.000  Hf
  Hf61     1.0000 0.96721  0.83120  0.42039  Biso   1.000  Hf
  Hf62     1.0000 0.96659  0.83326  0.92339  Biso   1.000  Hf
  Hf63     1.0000 0.28232  0.13614  0.24917  Biso   1.000  Hf
  Hf64     1.0000 0.25900  0.11465  0.75253  Biso   1.000  Hf
  Hf65     1.0000 0.27688  0.62380  0.23911  Biso   1.000  Hf
  Hf66     1.0000 0.27500  0.62953  0.74161  Biso   1.000  Hf
  Hf67     1.0000 0.77490  0.13045  0.23863  Biso   1.000  Hf
  Hf68     1.0000 0.77603  0.12806  0.74146  Biso   1.000  Hf
  Hf69     1.0000 0.77380  0.62811  0.24076  Biso   1.000  Hf
  Hf70     1.0000 0.77763  0.63016  0.73925  Biso   1.000  Hf
  Hf71     1.0000 0.26218  0.10707  0.48915  Biso   1.000  Hf
  Hf72     1.0000 0.28491  0.12775  0.98307  Biso   1.000  Hf
  Hf73     1.0000 0.27863  0.62006  0.49155  Biso   1.000  Hf
  Hf74     1.0000 0.27615  0.61924  0.99146  Biso   1.000  Hf
  Hf75     1.0000 0.78534  0.12124  0.48768  Biso   1.000  Hf
  Hf76     1.0000 0.77326  0.12095  0.99088  Biso   1.000  Hf
  Hf77     1.0000 0.77676  0.62260  0.48879  Biso   1.000  Hf
  Hf78     1.0000 0.77611  0.61915  0.98991  Biso   1.000  Hf
  Hf79     1.0000 0.22520  0.37985  0.01013  Biso   1.000  Hf
  Hf80     1.0000 0.21839  0.38378  0.50158  Biso   1.000  Hf
  Hf81     1.0000 0.23926  0.86531  0.99712  Biso   1.000  Hf
  Hf82     1.0000 0.22241  0.87289  0.51282  Biso   1.000  Hf
  Hf83     1.0000 0.72062  0.38022  0.00718  Biso   1.000  Hf
  Hf84     1.0000 0.72585  0.38193  0.50688  Biso   1.000  Hf
  Hf85     1.0000 0.72471  0.87842  0.01084  Biso   1.000  Hf
  Hf86     1.0000 0.72510  0.87760  0.51115  Biso   1.000  Hf
  Hf87     1.0000 0.22184  0.37107  0.25669  Biso   1.000  Hf
  Hf88     1.0000 0.21667  0.37875  0.76861  Biso   1.000  Hf
  Hf89     1.0000 0.23676  0.85810  0.26521  Biso   1.000  Hf
  Hf90     1.0000 0.22350  0.86751  0.75794  Biso   1.000  Hf
  Hf91     1.0000 0.72654  0.37389  0.25652  Biso   1.000  Hf
  Hf92     1.0000 0.72397  0.37070  0.75765  Biso   1.000  Hf
  Hf93     1.0000 0.71139  0.86905  0.26401  Biso   1.000  Hf
  Hf94     1.0000 0.72579  0.86944  0.76047  Biso   1.000  Hf
