data_image0
_cell_length_a       10.187
_cell_length_b       10.3525
_cell_length_c       10.4536
_cell_angle_alpha    89.9715
_cell_angle_beta     80.8647
_cell_angle_gamma    89.6773

_symmetry_space_group_name_H-M    "P 1"
_symmetry_int_tables_number       1

loop_
  _symmetry_equiv_pos_as_xyz
  'x, y, z'

loop_
  _atom_site_label
  _atom_site_occupancy
  _atom_site_fract_x
  _atom_site_fract_y
  _atom_site_fract_z
  _atom_site_thermal_displace_type
  _atom_site_B_iso_or_equiv
  _atom_site_type_symbol
  Hf1      1.0000 0.12014  0.00358  0.13397  Biso   1.000  Hf
  Hf2      1.0000 0.13440  0.02259  0.65478  Biso   1.000  Hf
  Hf3      1.0000 0.14122  0.52249  0.14475  Biso   1.000  Hf
  Hf4      1.0000 0.13692  0.52275  0.64418  Biso   1.000  Hf
  Hf5      1.0000 0.64398  0.02003  0.14389  Biso   1.000  Hf
  Hf6      1.0000 0.63563  0.02036  0.64667  Biso   1.000  Hf
  Hf7      1.0000 0.64359  0.52210  0.14389  Biso   1.000  Hf
  Hf8      1.0000 0.63581  0.52383  0.64706  Biso   1.000  Hf
  La1      1.0000 0.12497  0.24144  0.39524  Biso   1.000  La
  Hf9      1.0000 0.13921  0.23022  0.90109  Biso   1.000  Hf
  Hf10     1.0000 0.13908  0.72947  0.39438  Biso   1.000  Hf
  Hf11     1.0000 0.13805  0.72856  0.89367  Biso   1.000  Hf
  Hf12     1.0000 0.64379  0.23304  0.39641  Biso   1.000  Hf
  Hf13     1.0000 0.64362  0.22664  0.89604  Biso   1.000  Hf
  Hf14     1.0000 0.63769  0.73058  0.39817  Biso   1.000  Hf
  Hf15     1.0000 0.63806  0.72846  0.89359  Biso   1.000  Hf
  Hf16     1.0000 0.37627  0.28599  0.08557  Biso   1.000  Hf
  Hf17     1.0000 0.36095  0.27188  0.60724  Biso   1.000  Hf
  Hf18     1.0000 0.36435  0.77101  0.10039  Biso   1.000  Hf
  Hf19     1.0000 0.35845  0.77209  0.60443  Biso   1.000  Hf
  Hf20     1.0000 0.86397  0.27306  0.10614  Biso   1.000  Hf
  Hf21     1.0000 0.85117  0.27065  0.61152  Biso   1.000  Hf
  Hf22     1.0000 0.85738  0.76455  0.10012  Biso   1.000  Hf
  Hf23     1.0000 0.86089  0.77123  0.60389  Biso   1.000  Hf
  Hf24     1.0000 0.36833  0.48167  0.35238  Biso   1.000  Hf
  Hf25     1.0000 0.35883  0.48434  0.84777  Biso   1.000  Hf
  La2      1.0000 0.35896  0.98972  0.35668  Biso   1.000  La
  Hf26     1.0000 0.36223  0.97985  0.85634  Biso   1.000  Hf
  Hf27     1.0000 0.85741  0.48478  0.35526  Biso   1.000  Hf
  Hf28     1.0000 0.86370  0.47790  0.85219  Biso   1.000  Hf
  Hf29     1.0000 0.86002  0.97850  0.35366  Biso   1.000  Hf
  Hf30     1.0000 0.86119  0.97582  0.85499  Biso   1.000  Hf
  Hf31     1.0000 0.04004  0.17458  0.08553  Biso   1.000  Hf
  Hf32     1.0000 0.01696  0.16504  0.59978  Biso   1.000  Hf
  Hf33     1.0000 0.03705  0.67192  0.08211  Biso   1.000  Hf
  Hf34     1.0000 0.03372  0.66883  0.57886  Biso   1.000  Hf
  Hf35     1.0000 0.53676  0.17214  0.08256  Biso   1.000  Hf
  Hf36     1.0000 0.53724  0.17190  0.58215  Biso   1.000  Hf
  Hf37     1.0000 0.54023  0.67133  0.08039  Biso   1.000  Hf
  Hf38     1.0000 0.53660  0.67345  0.58470  Biso   1.000  Hf
  Hf39     1.0000 0.05290  0.05290  0.31953  Biso   1.000  Hf
  Hf40     1.0000 0.03760  0.07348  0.84358  Biso   1.000  Hf
  Hf41     1.0000 0.04155  0.57137  0.33373  Biso   1.000  Hf
  Hf42     1.0000 0.03710  0.57735  0.83131  Biso   1.000  Hf
  Hf43     1.0000 0.56062  0.07974  0.32552  Biso   1.000  Hf
  Hf44     1.0000 0.53487  0.08107  0.83430  Biso   1.000  Hf
  Hf45     1.0000 0.54231  0.57710  0.33293  Biso   1.000  Hf
  Hf46     1.0000 0.53508  0.57996  0.83213  Biso   1.000  Hf
  Hf47     1.0000 0.47459  0.42448  0.16576  Biso   1.000  Hf
  Hf48     1.0000 0.46143  0.42518  0.66821  Biso   1.000  Hf
  Hf49     1.0000 0.47189  0.92089  0.15208  Biso   1.000  Hf
  Hf50     1.0000 0.45973  0.92446  0.66902  Biso   1.000  Hf
  Hf51     1.0000 0.96795  0.41956  0.17190  Biso   1.000  Hf
  Hf52     1.0000 0.96235  0.42037  0.66695  Biso   1.000  Hf
  Hf53     1.0000 0.94730  0.92432  0.15468  Biso   1.000  Hf
  Hf54     1.0000 0.96097  0.91847  0.67208  Biso   1.000  Hf
  Hf55     1.0000 0.46088  0.32136  0.41436  Biso   1.000  Hf
  Hf56     1.0000 0.46992  0.33647  0.91305  Biso   1.000  Hf
  Hf57     1.0000 0.46273  0.82123  0.42274  Biso   1.000  Hf
  Hf58     1.0000 0.46280  0.82559  0.91339  Biso   1.000  Hf
  Hf59     1.0000 0.93032  0.32701  0.42606  Biso   1.000  Hf
  Hf60     1.0000 0.96491  0.32791  0.91809  Biso   1.000  Hf
  Hf61     1.0000 0.95946  0.82452  0.41473  Biso   1.000  Hf
  Hf62     1.0000 0.96209  0.82385  0.91587  Biso   1.000  Hf
  Hf63     1.0000 0.27596  0.13144  0.75670  Biso   1.000  Hf
  Hf64     1.0000 0.27914  0.62736  0.23922  Biso   1.000  Hf
  Hf65     1.0000 0.27358  0.62970  0.73906  Biso   1.000  Hf
  Hf66     1.0000 0.79016  0.13259  0.24017  Biso   1.000  Hf
  Hf67     1.0000 0.77051  0.12662  0.74526  Biso   1.000  Hf
  Hf68     1.0000 0.77745  0.62988  0.23981  Biso   1.000  Hf
  Hf69     1.0000 0.77588  0.62919  0.74063  Biso   1.000  Hf
  Hf70     1.0000 0.26491  0.12830  0.51894  Biso   1.000  Hf
  Hf71     1.0000 0.27927  0.12022  0.01396  Biso   1.000  Hf
  Hf72     1.0000 0.27693  0.62531  0.48848  Biso   1.000  Hf
  Hf73     1.0000 0.27615  0.62215  0.98917  Biso   1.000  Hf
  Hf74     1.0000 0.77556  0.11806  0.49302  Biso   1.000  Hf
  Hf75     1.0000 0.77710  0.12005  0.99214  Biso   1.000  Hf
  Hf76     1.0000 0.77500  0.62237  0.49152  Biso   1.000  Hf
  Hf77     1.0000 0.77771  0.61894  0.98837  Biso   1.000  Hf
  Hf78     1.0000 0.22625  0.38368  0.00115  Biso   1.000  Hf
  Hf79     1.0000 0.23554  0.39263  0.51151  Biso   1.000  Hf
  Hf80     1.0000 0.22421  0.87666  0.00161  Biso   1.000  Hf
  Hf81     1.0000 0.21098  0.87389  0.51766  Biso   1.000  Hf
  Hf82     1.0000 0.72746  0.37885  0.00900  Biso   1.000  Hf
  Hf83     1.0000 0.70890  0.38376  0.51443  Biso   1.000  Hf
  Hf84     1.0000 0.72548  0.87703  0.00611  Biso   1.000  Hf
  Hf85     1.0000 0.72344  0.88023  0.50912  Biso   1.000  Hf
  Hf86     1.0000 0.24514  0.37096  0.24030  Biso   1.000  Hf
  Hf87     1.0000 0.22225  0.37013  0.75845  Biso   1.000  Hf
  Hf88     1.0000 0.21707  0.86252  0.24384  Biso   1.000  Hf
  Hf89     1.0000 0.22467  0.87061  0.76085  Biso   1.000  Hf
  Hf90     1.0000 0.72666  0.37324  0.25857  Biso   1.000  Hf
  Hf91     1.0000 0.72291  0.37025  0.76273  Biso   1.000  Hf
  Hf92     1.0000 0.72498  0.86927  0.25937  Biso   1.000  Hf
  Hf93     1.0000 0.72178  0.87013  0.75873  Biso   1.000  Hf
