data_image0
_cell_length_a       10.1251
_cell_length_b       10.3065
_cell_length_c       10.4447
_cell_angle_alpha    90.1677
_cell_angle_beta     80.7156
_cell_angle_gamma    90.2206

_symmetry_space_group_name_H-M    "P 1"
_symmetry_int_tables_number       1

loop_
  _symmetry_equiv_pos_as_xyz
  'x, y, z'

loop_
  _atom_site_label
  _atom_site_occupancy
  _atom_site_fract_x
  _atom_site_fract_y
  _atom_site_fract_z
  _atom_site_thermal_displace_type
  _atom_site_B_iso_or_equiv
  _atom_site_type_symbol
  La1      1.0000 0.11673  0.00247  0.13670  Biso   1.000  La
  Hf1      1.0000 0.13967  0.02189  0.64524  Biso   1.000  Hf
  Hf2      1.0000 0.13828  0.52072  0.14508  Biso   1.000  Hf
  Hf3      1.0000 0.13955  0.52288  0.64501  Biso   1.000  Hf
  Hf4      1.0000 0.64001  0.02235  0.14514  Biso   1.000  Hf
  Hf5      1.0000 0.63739  0.02310  0.64875  Biso   1.000  Hf
  Hf6      1.0000 0.63484  0.51666  0.14766  Biso   1.000  Hf
  Hf7      1.0000 0.63782  0.52099  0.64498  Biso   1.000  Hf
  Hf8      1.0000 0.13663  0.22466  0.39418  Biso   1.000  Hf
  Hf9      1.0000 0.13848  0.23283  0.89352  Biso   1.000  Hf
  Hf10     1.0000 0.13894  0.72675  0.39489  Biso   1.000  Hf
  Hf11     1.0000 0.14204  0.73060  0.89599  Biso   1.000  Hf
  Hf12     1.0000 0.63626  0.22979  0.39698  Biso   1.000  Hf
  Hf13     1.0000 0.63849  0.23076  0.89624  Biso   1.000  Hf
  Hf14     1.0000 0.63644  0.72651  0.39644  Biso   1.000  Hf
  Hf15     1.0000 0.64084  0.72907  0.89360  Biso   1.000  Hf
  Hf16     1.0000 0.35644  0.26550  0.10380  Biso   1.000  Hf
  Hf17     1.0000 0.35935  0.27107  0.60308  Biso   1.000  Hf
  Hf18     1.0000 0.36786  0.76754  0.10330  Biso   1.000  Hf
  Hf19     1.0000 0.36078  0.77201  0.60275  Biso   1.000  Hf
  Hf20     1.0000 0.85982  0.27466  0.10276  Biso   1.000  Hf
  Hf21     1.0000 0.86236  0.27282  0.60501  Biso   1.000  Hf
  Hf22     1.0000 0.85397  0.76303  0.10524  Biso   1.000  Hf
  Hf23     1.0000 0.86200  0.77093  0.60326  Biso   1.000  Hf
  Hf24     1.0000 0.35741  0.47602  0.35305  Biso   1.000  Hf
  Hf25     1.0000 0.36237  0.47788  0.85391  Biso   1.000  Hf
  Hf26     1.0000 0.36080  0.97887  0.35220  Biso   1.000  Hf
  Hf27     1.0000 0.36394  0.97869  0.85250  Biso   1.000  Hf
  Hf28     1.0000 0.86110  0.47815  0.35479  Biso   1.000  Hf
  Hf29     1.0000 0.86129  0.48007  0.85215  Biso   1.000  Hf
  Hf30     1.0000 0.85029  0.98196  0.36643  Biso   1.000  Hf
  Hf31     1.0000 0.86248  0.98084  0.85567  Biso   1.000  Hf
  Hf32     1.0000 0.03561  0.18960  0.07804  Biso   1.000  Hf
  Hf33     1.0000 0.03649  0.17213  0.58394  Biso   1.000  Hf
  Hf34     1.0000 0.04024  0.68371  0.09060  Biso   1.000  Hf
  Hf35     1.0000 0.03647  0.67169  0.58034  Biso   1.000  Hf
  Hf36     1.0000 0.53615  0.16884  0.08042  Biso   1.000  Hf
  Hf37     1.0000 0.53366  0.16951  0.58104  Biso   1.000  Hf
  Hf38     1.0000 0.54057  0.66651  0.07830  Biso   1.000  Hf
  Hf39     1.0000 0.53513  0.66874  0.57943  Biso   1.000  Hf
  Hf40     1.0000 0.02396  0.07815  0.34333  Biso   1.000  Hf
  Hf41     1.0000 0.03752  0.08118  0.83173  Biso   1.000  Hf
  Hf42     1.0000 0.03715  0.57694  0.33233  Biso   1.000  Hf
  Hf43     1.0000 0.03425  0.58545  0.83145  Biso   1.000  Hf
  Hf44     1.0000 0.53975  0.07746  0.33056  Biso   1.000  Hf
  Hf45     1.0000 0.53810  0.08122  0.83028  Biso   1.000  Hf
  Hf46     1.0000 0.53274  0.57885  0.33078  Biso   1.000  Hf
  Hf47     1.0000 0.53685  0.58060  0.82933  Biso   1.000  Hf
  Hf48     1.0000 0.46161  0.41538  0.17041  Biso   1.000  Hf
  Hf49     1.0000 0.46340  0.41934  0.66882  Biso   1.000  Hf
  Hf50     1.0000 0.46873  0.91729  0.16960  Biso   1.000  Hf
  Hf51     1.0000 0.46471  0.91900  0.66962  Biso   1.000  Hf
  Hf52     1.0000 0.95793  0.42938  0.16574  Biso   1.000  Hf
  Hf53     1.0000 0.96325  0.42409  0.66755  Biso   1.000  Hf
  Hf54     1.0000 0.96530  0.91733  0.67297  Biso   1.000  Hf
  Hf55     1.0000 0.46214  0.32874  0.41879  Biso   1.000  Hf
  Hf56     1.0000 0.46456  0.33090  0.91966  Biso   1.000  Hf
  Hf57     1.0000 0.46543  0.83093  0.41984  Biso   1.000  Hf
  Hf58     1.0000 0.47490  0.83386  0.91902  Biso   1.000  Hf
  Hf59     1.0000 0.96166  0.32871  0.41855  Biso   1.000  Hf
  Hf60     1.0000 0.96061  0.33206  0.91392  Biso   1.000  Hf
  Hf61     1.0000 0.96220  0.82966  0.41380  Biso   1.000  Hf
  Hf62     1.0000 0.97462  0.84882  0.94077  Biso   1.000  Hf
  Hf63     1.0000 0.27718  0.12888  0.24416  Biso   1.000  Hf
  Hf64     1.0000 0.27654  0.12986  0.73776  Biso   1.000  Hf
  Hf65     1.0000 0.27772  0.62368  0.23863  Biso   1.000  Hf
  Hf66     1.0000 0.27715  0.63037  0.73994  Biso   1.000  Hf
  Hf67     1.0000 0.77915  0.12845  0.24139  Biso   1.000  Hf
  Hf68     1.0000 0.77821  0.13058  0.74222  Biso   1.000  Hf
  Hf69     1.0000 0.77216  0.62600  0.24232  Biso   1.000  Hf
  Hf70     1.0000 0.77679  0.63055  0.73888  Biso   1.000  Hf
  Hf71     1.0000 0.27514  0.12006  0.49026  Biso   1.000  Hf
  Hf72     1.0000 0.28003  0.12410  0.98120  Biso   1.000  Hf
  Hf73     1.0000 0.27565  0.62045  0.48981  Biso   1.000  Hf
  Hf74     1.0000 0.27498  0.61807  0.98956  Biso   1.000  Hf
  Hf75     1.0000 0.77143  0.12298  0.49589  Biso   1.000  Hf
  Hf76     1.0000 0.77642  0.12215  0.99115  Biso   1.000  Hf
  Hf77     1.0000 0.77584  0.62086  0.49012  Biso   1.000  Hf
  Hf78     1.0000 0.78085  0.62263  0.99049  Biso   1.000  Hf
  Hf79     1.0000 0.22403  0.38007  0.00793  Biso   1.000  Hf
  Hf80     1.0000 0.22170  0.37933  0.50817  Biso   1.000  Hf
  Hf81     1.0000 0.24351  0.86625  0.99636  Biso   1.000  Hf
  Hf82     1.0000 0.22382  0.87956  0.50837  Biso   1.000  Hf
  Hf83     1.0000 0.72182  0.38182  0.00815  Biso   1.000  Hf
  Hf84     1.0000 0.72280  0.37959  0.50959  Biso   1.000  Hf
  Hf85     1.0000 0.72685  0.87854  0.00950  Biso   1.000  Hf
  Hf86     1.0000 0.72049  0.87850  0.51305  Biso   1.000  Hf
  Hf87     1.0000 0.21883  0.36891  0.25721  Biso   1.000  Hf
  Hf88     1.0000 0.22276  0.37339  0.75776  Biso   1.000  Hf
  Hf89     1.0000 0.23399  0.85938  0.26072  Biso   1.000  Hf
  Hf90     1.0000 0.22286  0.87147  0.75720  Biso   1.000  Hf
  Hf91     1.0000 0.72178  0.36937  0.26011  Biso   1.000  Hf
  Hf92     1.0000 0.72331  0.37170  0.75842  Biso   1.000  Hf
  Hf93     1.0000 0.73284  0.86838  0.25780  Biso   1.000  Hf
  Hf94     1.0000 0.72696  0.87158  0.75988  Biso   1.000  Hf
