data_image0
_cell_length_a       10.1751
_cell_length_b       10.3737
_cell_length_c       5.23155
_cell_angle_alpha    90.0795
_cell_angle_beta     80.8599
_cell_angle_gamma    90.296

_symmetry_space_group_name_H-M    "P 1"
_symmetry_int_tables_number       1

loop_
  _symmetry_equiv_pos_as_xyz
  'x, y, z'

loop_
  _atom_site_label
  _atom_site_occupancy
  _atom_site_fract_x
  _atom_site_fract_y
  _atom_site_fract_z
  _atom_site_thermal_displace_type
  _atom_site_B_iso_or_equiv
  _atom_site_type_symbol
  La1      1.0000 0.13031  0.01281  0.27803  Biso   1.000  La
  Hf1      1.0000 0.13739  0.23293  0.78960  Biso   1.000  Hf
  Hf2      1.0000 0.36053  0.26883  0.20623  Biso   1.000  Hf
  Hf3      1.0000 0.36054  0.47670  0.70515  Biso   1.000  Hf
  Hf4      1.0000 0.03921  0.19928  0.16859  Biso   1.000  Hf
  Hf5      1.0000 0.03053  0.07638  0.70876  Biso   1.000  Hf
  Hf6      1.0000 0.46459  0.41666  0.33961  Biso   1.000  Hf
  Hf7      1.0000 0.46615  0.33199  0.83895  Biso   1.000  Hf
  Hf8      1.0000 0.28174  0.13447  0.48982  Biso   1.000  Hf
  Hf9      1.0000 0.28397  0.12677  0.96290  Biso   1.000  Hf
  Hf10     1.0000 0.22559  0.38061  0.01299  Biso   1.000  Hf
  Hf11     1.0000 0.22149  0.37216  0.51255  Biso   1.000  Hf
  Hf12     1.0000 0.13925  0.52039  0.28757  Biso   1.000  Hf
  Hf13     1.0000 0.14219  0.72555  0.78753  Biso   1.000  Hf
  Hf14     1.0000 0.36595  0.76747  0.20636  Biso   1.000  Hf
  Hf15     1.0000 0.36493  0.97884  0.70150  Biso   1.000  Hf
  Hf16     1.0000 0.04081  0.67771  0.16883  Biso   1.000  Hf
  Hf17     1.0000 0.03769  0.57736  0.66251  Biso   1.000  Hf
  Hf18     1.0000 0.46708  0.91946  0.33553  Biso   1.000  Hf
  Hf19     1.0000 0.47296  0.83329  0.83907  Biso   1.000  Hf
  Hf20     1.0000 0.27796  0.62371  0.47557  Biso   1.000  Hf
  Hf21     1.0000 0.27672  0.61736  0.97822  Biso   1.000  Hf
  Hf22     1.0000 0.24114  0.86641  0.99326  Biso   1.000  Hf
  Hf23     1.0000 0.23592  0.85852  0.51884  Biso   1.000  Hf
  Hf24     1.0000 0.64083  0.02200  0.29603  Biso   1.000  Hf
  Hf25     1.0000 0.63867  0.23014  0.79413  Biso   1.000  Hf
  Hf26     1.0000 0.85971  0.27462  0.20832  Biso   1.000  Hf
  Hf27     1.0000 0.86163  0.47940  0.70543  Biso   1.000  Hf
  Hf28     1.0000 0.53580  0.16871  0.16090  Biso   1.000  Hf
  Hf29     1.0000 0.53895  0.08076  0.66009  Biso   1.000  Hf
  Hf30     1.0000 0.95745  0.43190  0.32683  Biso   1.000  Hf
  Hf31     1.0000 0.95899  0.32931  0.82433  Biso   1.000  Hf
  Hf32     1.0000 0.77682  0.13250  0.48926  Biso   1.000  Hf
  Hf33     1.0000 0.77367  0.12196  0.99059  Biso   1.000  Hf
  Hf34     1.0000 0.72240  0.38009  0.01760  Biso   1.000  Hf
  Hf35     1.0000 0.72268  0.37212  0.51903  Biso   1.000  Hf
  Hf36     1.0000 0.63796  0.51776  0.29198  Biso   1.000  Hf
  Hf37     1.0000 0.63874  0.72595  0.79088  Biso   1.000  Hf
  Hf38     1.0000 0.85910  0.76424  0.20485  Biso   1.000  Hf
  Hf39     1.0000 0.85520  0.97869  0.72803  Biso   1.000  Hf
  Hf40     1.0000 0.53809  0.66622  0.15853  Biso   1.000  Hf
  Hf41     1.0000 0.53449  0.58023  0.65767  Biso   1.000  Hf
  Hf42     1.0000 0.92967  0.92320  0.35224  Biso   1.000  Hf
  Hf43     1.0000 0.96610  0.82889  0.84008  Biso   1.000  Hf
  Hf44     1.0000 0.77433  0.62937  0.48072  Biso   1.000  Hf
  Hf45     1.0000 0.77646  0.61872  0.97936  Biso   1.000  Hf
  Hf46     1.0000 0.72450  0.87718  0.02445  Biso   1.000  Hf
  Hf47     1.0000 0.71313  0.87039  0.53069  Biso   1.000  Hf
