data_image0
_cell_length_a       10.2927
_cell_length_b       5.17896
_cell_length_c       10.5925
_cell_angle_alpha    89.9906
_cell_angle_beta     81.0277
_cell_angle_gamma    90.0084

_symmetry_space_group_name_H-M    "P 1"
_symmetry_int_tables_number       1

loop_
  _symmetry_equiv_pos_as_xyz
  'x, y, z'

loop_
  _atom_site_label
  _atom_site_occupancy
  _atom_site_fract_x
  _atom_site_fract_y
  _atom_site_fract_z
  _atom_site_thermal_displace_type
  _atom_site_B_iso_or_equiv
  _atom_site_type_symbol
  La1      1.0000 0.12401  0.99965  0.13920  Biso   1.000  La
  Hf1      1.0000 0.14100  0.04243  0.64679  Biso   1.000  Hf
  Hf2      1.0000 0.64359  0.02675  0.14864  Biso   1.000  Hf
  Hf3      1.0000 0.63774  0.04571  0.64741  Biso   1.000  Hf
  Hf4      1.0000 0.13390  0.44884  0.40171  Biso   1.000  Hf
  Hf5      1.0000 0.14253  0.46062  0.89186  Biso   1.000  Hf
  Hf6      1.0000 0.63181  0.45649  0.39963  Biso   1.000  Hf
  Hf7      1.0000 0.65259  0.46113  0.88783  Biso   1.000  Hf
  La2      1.0000 0.37604  0.49965  0.11117  Biso   1.000  La
  Hf8      1.0000 0.35897  0.54246  0.60354  Biso   1.000  Hf
  Hf9      1.0000 0.85630  0.52679  0.10151  Biso   1.000  Hf
  Hf10     1.0000 0.86219  0.54584  0.60279  Biso   1.000  Hf
  Hf11     1.0000 0.35741  0.96077  0.35846  Biso   1.000  Hf
  Hf12     1.0000 0.36606  0.94884  0.84863  Biso   1.000  Hf
  Hf13     1.0000 0.84731  0.96129  0.36234  Biso   1.000  Hf
  Hf14     1.0000 0.86807  0.95646  0.85058  Biso   1.000  Hf
  O1       1.0000 0.03991  0.39692  0.08220  Biso   1.000  O 
  O2       1.0000 0.03360  0.33930  0.58449  Biso   1.000  O 
  O3       1.0000 0.58196  0.35783  0.07663  Biso   1.000  O 
  O4       1.0000 0.53231  0.33767  0.58274  Biso   1.000  O 
  O5       1.0000 0.01130  0.17626  0.34481  Biso   1.000  O 
  O6       1.0000 0.04006  0.15738  0.82944  Biso   1.000  O 
  O7       1.0000 0.53234  0.16674  0.33346  Biso   1.000  O 
  O8       1.0000 0.53922  0.16816  0.83056  Biso   1.000  O 
  O9       1.0000 0.45998  0.89728  0.16797  Biso   1.000  O 
  O10      1.0000 0.46627  0.83941  0.66579  Biso   1.000  O 
  O11      1.0000 0.91811  0.85750  0.17365  Biso   1.000  O 
  O12      1.0000 0.96764  0.83755  0.66754  Biso   1.000  O 
  O13      1.0000 0.45987  0.65736  0.42079  Biso   1.000  O 
  O14      1.0000 0.48861  0.67589  0.90541  Biso   1.000  O 
  O15      1.0000 0.96080  0.66844  0.41970  Biso   1.000  O 
  O16      1.0000 0.96764  0.66685  0.91681  Biso   1.000  O 
  O17      1.0000 0.25484  0.22847  0.26543  Biso   1.000  O 
  O18      1.0000 0.27773  0.25953  0.73702  Biso   1.000  O 
  O19      1.0000 0.77004  0.26320  0.24534  Biso   1.000  O 
  O20      1.0000 0.77864  0.26016  0.73662  Biso   1.000  O 
  O21      1.0000 0.27368  0.24268  0.49706  Biso   1.000  O 
  O22      1.0000 0.27115  0.21798  0.97530  Biso   1.000  O 
  O23      1.0000 0.76754  0.24581  0.49480  Biso   1.000  O 
  O24      1.0000 0.79454  0.24069  0.98123  Biso   1.000  O 
  O25      1.0000 0.24510  0.72836  0.98494  Biso   1.000  O 
  O26      1.0000 0.22224  0.75963  0.51332  Biso   1.000  O 
  O27      1.0000 0.72993  0.76340  0.00483  Biso   1.000  O 
  O28      1.0000 0.72126  0.76020  0.51359  Biso   1.000  O 
  O29      1.0000 0.22887  0.71799  0.27502  Biso   1.000  O 
  O30      1.0000 0.22628  0.74266  0.75326  Biso   1.000  O 
  O31      1.0000 0.70539  0.74065  0.26887  Biso   1.000  O 
  O32      1.0000 0.73237  0.74577  0.75534  Biso   1.000  O 
