data_image0
_cell_length_a       5.1295
_cell_length_b       10.3979
_cell_length_c       10.5489
_cell_angle_alpha    89.9146
_cell_angle_beta     81.2089
_cell_angle_gamma    89.9277

_symmetry_space_group_name_H-M    "P 1"
_symmetry_int_tables_number       1

loop_
  _symmetry_equiv_pos_as_xyz
  'x, y, z'

loop_
  _atom_site_label
  _atom_site_occupancy
  _atom_site_fract_x
  _atom_site_fract_y
  _atom_site_fract_z
  _atom_site_thermal_displace_type
  _atom_site_B_iso_or_equiv
  _atom_site_type_symbol
  La1      1.0000 0.25637  0.99748  0.13684  Biso   1.000  La
  Hf1      1.0000 0.27968  0.02253  0.64855  Biso   1.000  Hf
  Hf2      1.0000 0.28108  0.51720  0.14655  Biso   1.000  Hf
  Hf3      1.0000 0.27854  0.52119  0.64610  Biso   1.000  Hf
  Hf4      1.0000 0.26131  0.22989  0.40100  Biso   1.000  Hf
  Hf5      1.0000 0.29180  0.23392  0.88701  Biso   1.000  Hf
  Hf6      1.0000 0.26770  0.72374  0.40024  Biso   1.000  Hf
  Hf7      1.0000 0.29481  0.72655  0.89327  Biso   1.000  Hf
  La2      1.0000 0.72939  0.25644  0.10998  Biso   1.000  La
  Hf8      1.0000 0.71921  0.27271  0.60354  Biso   1.000  Hf
  Hf9      1.0000 0.73043  0.75917  0.10488  Biso   1.000  Hf
  Hf10     1.0000 0.72224  0.77139  0.60309  Biso   1.000  Hf
  Hf11     1.0000 0.71653  0.48172  0.35528  Biso   1.000  Hf
  Hf12     1.0000 0.73127  0.47887  0.85126  Biso   1.000  Hf
  Hf13     1.0000 0.69411  0.97948  0.36286  Biso   1.000  Hf
  Hf14     1.0000 0.73965  0.97173  0.85034  Biso   1.000  Hf
  O1       1.0000 0.15050  0.19977  0.07675  Biso   1.000  O 
  O2       1.0000 0.06448  0.16881  0.58294  Biso   1.000  O 
  O3       1.0000 0.09709  0.68023  0.08570  Biso   1.000  O 
  O4       1.0000 0.06807  0.66910  0.58316  Biso   1.000  O 
  O5       1.0000 0.02164  0.09018  0.33918  Biso   1.000  O 
  O6       1.0000 0.07910  0.08084  0.83077  Biso   1.000  O 
  O7       1.0000 0.06645  0.58182  0.33509  Biso   1.000  O 
  O8       1.0000 0.07863  0.58125  0.83001  Biso   1.000  O 
  O9       1.0000 0.92329  0.43913  0.17332  Biso   1.000  O 
  O10      1.0000 0.93225  0.42183  0.66481  Biso   1.000  O 
  O11      1.0000 0.83619  0.93743  0.16589  Biso   1.000  O 
  O12      1.0000 0.93668  0.91541  0.66984  Biso   1.000  O 
  O13      1.0000 0.91436  0.33148  0.42032  Biso   1.000  O 
  O14      1.0000 0.94254  0.33040  0.90075  Biso   1.000  O 
  O15      1.0000 0.92583  0.83153  0.41971  Biso   1.000  O 
  O16      1.0000 0.96866  0.83825  0.92622  Biso   1.000  O 
  O17      1.0000 0.50351  0.12050  0.26801  Biso   1.000  O 
  O18      1.0000 0.55622  0.13016  0.73519  Biso   1.000  O 
  O19      1.0000 0.54802  0.62360  0.24129  Biso   1.000  O 
  O20      1.0000 0.55724  0.62983  0.73873  Biso   1.000  O 
  O21      1.0000 0.53826  0.12249  0.49849  Biso   1.000  O 
  O22      1.0000 0.55467  0.10994  0.96932  Biso   1.000  O 
  O23      1.0000 0.54748  0.62178  0.49238  Biso   1.000  O 
  O24      1.0000 0.56780  0.61845  0.98976  Biso   1.000  O 
  O25      1.0000 0.44906  0.39021  0.99758  Biso   1.000  O 
  O26      1.0000 0.44175  0.38022  0.51164  Biso   1.000  O 
  O27      1.0000 0.49780  0.85892  0.99323  Biso   1.000  O 
  O28      1.0000 0.44335  0.88002  0.51427  Biso   1.000  O 
  O29      1.0000 0.42712  0.37652  0.26911  Biso   1.000  O 
  O30      1.0000 0.45961  0.37374  0.75391  Biso   1.000  O 
  O31      1.0000 0.45176  0.85172  0.26925  Biso   1.000  O 
  O32      1.0000 0.45764  0.87028  0.75647  Biso   1.000  O 
