data_image0
_cell_length_a       10.3232
_cell_length_b       5.19536
_cell_length_c       10.4766
_cell_angle_alpha    90.1966
_cell_angle_beta     81.2378
_cell_angle_gamma    90.8147

_symmetry_space_group_name_H-M    "P 1"
_symmetry_int_tables_number       1

loop_
  _symmetry_equiv_pos_as_xyz
  'x, y, z'

loop_
  _atom_site_label
  _atom_site_occupancy
  _atom_site_fract_x
  _atom_site_fract_y
  _atom_site_fract_z
  _atom_site_thermal_displace_type
  _atom_site_B_iso_or_equiv
  _atom_site_type_symbol
  La1      1.0000 0.12995  0.01497  0.13963  Biso   1.000  La
  Hf1      1.0000 0.14123  0.03533  0.64679  Biso   1.000  Hf
  Hf2      1.0000 0.64118  0.03531  0.14678  Biso   1.000  Hf
  La2      1.0000 0.62997  0.01500  0.63966  Biso   1.000  La
  Hf3      1.0000 0.14493  0.45228  0.39562  Biso   1.000  Hf
  Hf4      1.0000 0.13594  0.46311  0.89592  Biso   1.000  Hf
  Hf5      1.0000 0.63587  0.46313  0.39590  Biso   1.000  Hf
  Hf6      1.0000 0.64493  0.45228  0.89561  Biso   1.000  Hf
  Hf7      1.0000 0.36879  0.52800  0.10393  Biso   1.000  Hf
  Hf8      1.0000 0.35601  0.53524  0.60282  Biso   1.000  Hf
  Hf9      1.0000 0.85596  0.53518  0.10284  Biso   1.000  Hf
  Hf10     1.0000 0.86880  0.52804  0.60388  Biso   1.000  Hf
  Hf11     1.0000 0.36279  0.95655  0.35314  Biso   1.000  Hf
  Hf12     1.0000 0.35753  0.96079  0.85767  Biso   1.000  Hf
  Hf13     1.0000 0.85751  0.96074  0.35767  Biso   1.000  Hf
  Hf14     1.0000 0.86282  0.95652  0.85316  Biso   1.000  Hf
  O1       1.0000 0.03839  0.40294  0.08639  Biso   1.000  O 
  O2       1.0000 0.04245  0.34341  0.58491  Biso   1.000  O 
  O3       1.0000 0.54249  0.34361  0.08494  Biso   1.000  O 
  O4       1.0000 0.53839  0.40310  0.58642  Biso   1.000  O 
  O5       1.0000 0.02806  0.16621  0.34544  Biso   1.000  O 
  O6       1.0000 0.03892  0.14969  0.83704  Biso   1.000  O 
  O7       1.0000 0.53891  0.14957  0.33708  Biso   1.000  O 
  O8       1.0000 0.52806  0.16610  0.84548  Biso   1.000  O 
  O9       1.0000 0.46579  0.84325  0.16567  Biso   1.000  O 
  O10      1.0000 0.42299  0.86941  0.66729  Biso   1.000  O 
  O11      1.0000 0.92300  0.86914  0.16739  Biso   1.000  O 
  O12      1.0000 0.96584  0.84313  0.66571  Biso   1.000  O 
  O13      1.0000 0.46152  0.65682  0.41584  Biso   1.000  O 
  O14      1.0000 0.47883  0.67106  0.91155  Biso   1.000  O 
  O15      1.0000 0.97878  0.67113  0.41172  Biso   1.000  O 
  O16      1.0000 0.96161  0.65703  0.91590  Biso   1.000  O 
  O17      1.0000 0.28461  0.25528  0.24612  Biso   1.000  O 
  O18      1.0000 0.27163  0.26626  0.74263  Biso   1.000  O 
  O19      1.0000 0.77159  0.26631  0.24261  Biso   1.000  O 
  O20      1.0000 0.78459  0.25524  0.74612  Biso   1.000  O 
  O21      1.0000 0.27594  0.23477  0.49252  Biso   1.000  O 
  O22      1.0000 0.27971  0.24689  0.98459  Biso   1.000  O 
  O23      1.0000 0.77970  0.24687  0.48457  Biso   1.000  O 
  O24      1.0000 0.77595  0.23468  0.99251  Biso   1.000  O 
  O25      1.0000 0.24627  0.73000  0.99622  Biso   1.000  O 
  O26      1.0000 0.22456  0.75649  0.50819  Biso   1.000  O 
  O27      1.0000 0.72458  0.75642  0.00818  Biso   1.000  O 
  O28      1.0000 0.74621  0.72996  0.49622  Biso   1.000  O 
  O29      1.0000 0.23912  0.71648  0.26011  Biso   1.000  O 
  O30      1.0000 0.20920  0.74421  0.76277  Biso   1.000  O 
  O31      1.0000 0.70912  0.74427  0.26278  Biso   1.000  O 
  O32      1.0000 0.73916  0.71653  0.76012  Biso   1.000  O 
