data_image0
_cell_length_a       5.10805
_cell_length_b       10.4594
_cell_length_c       10.5597
_cell_angle_alpha    89.1034
_cell_angle_beta     81.0637
_cell_angle_gamma    90.1303

_symmetry_space_group_name_H-M    "P 1"
_symmetry_int_tables_number       1

loop_
  _symmetry_equiv_pos_as_xyz
  'x, y, z'

loop_
  _atom_site_label
  _atom_site_occupancy
  _atom_site_fract_x
  _atom_site_fract_y
  _atom_site_fract_z
  _atom_site_thermal_displace_type
  _atom_site_B_iso_or_equiv
  _atom_site_type_symbol
  La1      1.0000 0.25996  0.01216  0.13826  Biso   1.000  La
  Hf1      1.0000 0.27013  0.02808  0.65305  Biso   1.000  Hf
  Hf2      1.0000 0.26877  0.50903  0.14508  Biso   1.000  Hf
  Hf3      1.0000 0.27879  0.52442  0.64443  Biso   1.000  Hf
  Hf4      1.0000 0.26954  0.23512  0.40112  Biso   1.000  Hf
  Hf5      1.0000 0.27564  0.23238  0.89436  Biso   1.000  Hf
  La2      1.0000 0.27580  0.73637  0.38904  Biso   1.000  La
  Hf6      1.0000 0.28998  0.72684  0.88709  Biso   1.000  Hf
  Hf7      1.0000 0.71501  0.26925  0.10237  Biso   1.000  Hf
  Hf8      1.0000 0.71959  0.27641  0.60752  Biso   1.000  Hf
  Hf9      1.0000 0.73413  0.74128  0.08271  Biso   1.000  Hf
  Hf10     1.0000 0.72157  0.77503  0.60588  Biso   1.000  Hf
  Hf11     1.0000 0.71591  0.47717  0.35244  Biso   1.000  Hf
  Hf12     1.0000 0.72987  0.47531  0.84834  Biso   1.000  Hf
  Hf13     1.0000 0.71472  0.00208  0.37878  Biso   1.000  Hf
  Hf14     1.0000 0.72661  0.97833  0.85352  Biso   1.000  Hf
  O1       1.0000 0.06825  0.18426  0.07679  Biso   1.000  O 
  O2       1.0000 0.06530  0.17627  0.58867  Biso   1.000  O 
  O3       1.0000 0.09883  0.67384  0.08094  Biso   1.000  O 
  O4       1.0000 0.06337  0.67306  0.59262  Biso   1.000  O 
  O5       1.0000 0.07630  0.07491  0.35131  Biso   1.000  O 
  O6       1.0000 0.07676  0.07711  0.83862  Biso   1.000  O 
  O7       1.0000 0.06912  0.56166  0.32375  Biso   1.000  O 
  O8       1.0000 0.07464  0.57748  0.83288  Biso   1.000  O 
  O9       1.0000 0.91543  0.41774  0.16323  Biso   1.000  O 
  O10      1.0000 0.92718  0.42405  0.66680  Biso   1.000  O 
  O11      1.0000 0.82478  0.91772  0.17713  Biso   1.000  O 
  O12      1.0000 0.92524  0.92410  0.67239  Biso   1.000  O 
  O13      1.0000 0.91474  0.32603  0.41986  Biso   1.000  O 
  O14      1.0000 0.92351  0.32842  0.91288  Biso   1.000  O 
  O15      1.0000 0.88217  0.83524  0.42328  Biso   1.000  O 
  O16      1.0000 0.95243  0.83106  0.91826  Biso   1.000  O 
  O17      1.0000 0.56084  0.13445  0.25185  Biso   1.000  O 
  O18      1.0000 0.55077  0.13221  0.74317  Biso   1.000  O 
  O19      1.0000 0.56459  0.61529  0.22547  Biso   1.000  O 
  O20      1.0000 0.54901  0.63101  0.73887  Biso   1.000  O 
  O21      1.0000 0.54004  0.13366  0.50192  Biso   1.000  O 
  O22      1.0000 0.56153  0.12256  0.98406  Biso   1.000  O 
  O23      1.0000 0.56551  0.61349  0.49546  Biso   1.000  O 
  O24      1.0000 0.55804  0.61154  0.98134  Biso   1.000  O 
  O25      1.0000 0.44674  0.37649  0.00625  Biso   1.000  O 
  O26      1.0000 0.43826  0.38053  0.50926  Biso   1.000  O 
  O27      1.0000 0.47942  0.86181  0.99709  Biso   1.000  O 
  O28      1.0000 0.44363  0.89902  0.51969  Biso   1.000  O 
  O29      1.0000 0.43820  0.36757  0.25797  Biso   1.000  O 
  O30      1.0000 0.44755  0.37275  0.75734  Biso   1.000  O 
  O31      1.0000 0.57037  0.87350  0.24257  Biso   1.000  O 
  O32      1.0000 0.45172  0.87196  0.75897  Biso   1.000  O 
