data_image0
_cell_length_a       10.3455
_cell_length_b       5.18215
_cell_length_c       10.4395
_cell_angle_alpha    90.0053
_cell_angle_beta     81.0343
_cell_angle_gamma    90.0168

_symmetry_space_group_name_H-M    "P 1"
_symmetry_int_tables_number       1

loop_
  _symmetry_equiv_pos_as_xyz
  'x, y, z'

loop_
  _atom_site_label
  _atom_site_occupancy
  _atom_site_fract_x
  _atom_site_fract_y
  _atom_site_fract_z
  _atom_site_thermal_displace_type
  _atom_site_B_iso_or_equiv
  _atom_site_type_symbol
  La1      1.0000 0.12391  0.01658  0.14038  Biso   1.000  La
  Hf1      1.0000 0.14417  0.03512  0.64644  Biso   1.000  Hf
  Hf2      1.0000 0.64204  0.03354  0.14647  Biso   1.000  Hf
  Hf3      1.0000 0.63503  0.02667  0.65023  Biso   1.000  Hf
  Hf4      1.0000 0.15239  0.45761  0.39071  Biso   1.000  Hf
  Hf5      1.0000 0.13794  0.46347  0.89292  Biso   1.000  Hf
  Hf6      1.0000 0.63305  0.45426  0.40072  Biso   1.000  Hf
  Hf7      1.0000 0.63902  0.45605  0.89718  Biso   1.000  Hf
  Hf8      1.0000 0.36516  0.52669  0.09953  Biso   1.000  Hf
  Hf9      1.0000 0.35813  0.53349  0.60332  Biso   1.000  Hf
  Hf10     1.0000 0.85598  0.53517  0.10330  Biso   1.000  Hf
  La2      1.0000 0.87627  0.51668  0.60939  Biso   1.000  La
  Hf11     1.0000 0.36705  0.95422  0.34907  Biso   1.000  Hf
  Hf12     1.0000 0.36104  0.95605  0.85260  Biso   1.000  Hf
  Hf13     1.0000 0.84777  0.95768  0.35910  Biso   1.000  Hf
  Hf14     1.0000 0.86211  0.96350  0.85685  Biso   1.000  Hf
  O1       1.0000 0.04058  0.41803  0.08665  Biso   1.000  O 
  O2       1.0000 0.08434  0.38499  0.58984  Biso   1.000  O 
  O3       1.0000 0.53690  0.32622  0.07875  Biso   1.000  O 
  O4       1.0000 0.52959  0.32869  0.58438  Biso   1.000  O 
  O5       1.0000 0.01646  0.18464  0.35698  Biso   1.000  O 
  O6       1.0000 0.04347  0.13905  0.84668  Biso   1.000  O 
  O7       1.0000 0.53705  0.15561  0.32841  Biso   1.000  O 
  O8       1.0000 0.52747  0.16800  0.83028  Biso   1.000  O 
  O9       1.0000 0.47050  0.82877  0.16537  Biso   1.000  O 
  O10      1.0000 0.46321  0.82620  0.67102  Biso   1.000  O 
  O11      1.0000 0.91576  0.88499  0.16001  Biso   1.000  O 
  O12      1.0000 0.95952  0.91805  0.66307  Biso   1.000  O 
  O13      1.0000 0.46308  0.65557  0.42134  Biso   1.000  O 
  O14      1.0000 0.47267  0.66801  0.91947  Biso   1.000  O 
  O15      1.0000 0.98366  0.68456  0.39283  Biso   1.000  O 
  O16      1.0000 0.95664  0.63906  0.90309  Biso   1.000  O 
  O17      1.0000 0.27908  0.25101  0.24428  Biso   1.000  O 
  O18      1.0000 0.27642  0.25353  0.74003  Biso   1.000  O 
  O19      1.0000 0.77054  0.26800  0.24626  Biso   1.000  O 
  O20      1.0000 0.75951  0.23545  0.75605  Biso   1.000  O 
  O21      1.0000 0.28929  0.23851  0.48460  Biso   1.000  O 
  O22      1.0000 0.27954  0.24456  0.98326  Biso   1.000  O 
  O23      1.0000 0.75813  0.22057  0.49364  Biso   1.000  O 
  O24      1.0000 0.77575  0.23893  0.99550  Biso   1.000  O 
  O25      1.0000 0.24065  0.73544  0.99375  Biso   1.000  O 
  O26      1.0000 0.22964  0.76781  0.50355  Biso   1.000  O 
  O27      1.0000 0.72373  0.75359  0.00975  Biso   1.000  O 
  O28      1.0000 0.72107  0.75104  0.50553  Biso   1.000  O 
  O29      1.0000 0.24200  0.72051  0.25611  Biso   1.000  O 
  O30      1.0000 0.22432  0.73896  0.75427  Biso   1.000  O 
  O31      1.0000 0.71073  0.73874  0.26523  Biso   1.000  O 
  O32      1.0000 0.72055  0.74464  0.76650  Biso   1.000  O 
