data_image0
_cell_length_a       5.06162
_cell_length_b       10.3748
_cell_length_c       10.378
_cell_angle_alpha    90.3847
_cell_angle_beta     81.4613
_cell_angle_gamma    90.0701

_symmetry_space_group_name_H-M    "P 1"
_symmetry_int_tables_number       1

loop_
  _symmetry_equiv_pos_as_xyz
  'x, y, z'

loop_
  _atom_site_label
  _atom_site_occupancy
  _atom_site_fract_x
  _atom_site_fract_y
  _atom_site_fract_z
  _atom_site_thermal_displace_type
  _atom_site_B_iso_or_equiv
  _atom_site_type_symbol
  La1      1.0000 0.27058  0.00341  0.13432  Biso   1.000  La
  Hf1      1.0000 0.28467  0.02373  0.64429  Biso   1.000  Hf
  Hf2      1.0000 0.27629  0.51749  0.14666  Biso   1.000  Hf
  Hf3      1.0000 0.27960  0.51831  0.64337  Biso   1.000  Hf
  Hf4      1.0000 0.27461  0.22592  0.39299  Biso   1.000  Hf
  Hf5      1.0000 0.28061  0.23492  0.89454  Biso   1.000  Hf
  Hf6      1.0000 0.27038  0.72331  0.39940  Biso   1.000  Hf
  Hf7      1.0000 0.27438  0.72587  0.89101  Biso   1.000  Hf
  Hf8      1.0000 0.72296  0.26905  0.10290  Biso   1.000  Hf
  Hf9      1.0000 0.72634  0.27092  0.60175  Biso   1.000  Hf
  Hf10     1.0000 0.72924  0.75947  0.11008  Biso   1.000  Hf
  Hf11     1.0000 0.72427  0.77079  0.60514  Biso   1.000  Hf
  Hf12     1.0000 0.71893  0.47632  0.35390  Biso   1.000  Hf
  Hf13     1.0000 0.72289  0.47902  0.85258  Biso   1.000  Hf
  Hf14     1.0000 0.71244  0.97857  0.35656  Biso   1.000  Hf
  Hf15     1.0000 0.74564  0.98535  0.84858  Biso   1.000  Hf
  O1       1.0000 0.08517  0.19265  0.08022  Biso   1.000  O 
  O2       1.0000 0.07873  0.17515  0.58661  Biso   1.000  O 
  O3       1.0000 0.10283  0.69034  0.09147  Biso   1.000  O 
  O4       1.0000 0.07449  0.67332  0.58885  Biso   1.000  O 
  O5       1.0000 0.06403  0.07193  0.34468  Biso   1.000  O 
  O6       1.0000 0.09707  0.07479  0.83515  Biso   1.000  O 
  O7       1.0000 0.07346  0.57297  0.33428  Biso   1.000  O 
  O8       1.0000 0.07780  0.57536  0.83652  Biso   1.000  O 
  O9       1.0000 0.91612  0.43028  0.16198  Biso   1.000  O 
  O10      1.0000 0.92210  0.42621  0.66421  Biso   1.000  O 
  O11      1.0000 0.84638  0.93434  0.16077  Biso   1.000  O 
  O12      1.0000 0.92951  0.92435  0.66522  Biso   1.000  O 
  O13      1.0000 0.92127  0.32452  0.41434  Biso   1.000  O 
  O14      1.0000 0.92438  0.32795  0.90880  Biso   1.000  O 
  O15      1.0000 0.91851  0.82284  0.41644  Biso   1.000  O 
  O16      1.0000 0.92213  0.82950  0.92240  Biso   1.000  O 
  O17      1.0000 0.55933  0.13738  0.24735  Biso   1.000  O 
  O18      1.0000 0.56201  0.13143  0.73718  Biso   1.000  O 
  O19      1.0000 0.55278  0.62102  0.24207  Biso   1.000  O 
  O20      1.0000 0.55062  0.63005  0.73989  Biso   1.000  O 
  O21      1.0000 0.54767  0.12001  0.49243  Biso   1.000  O 
  O22      1.0000 0.57430  0.12421  0.97991  Biso   1.000  O 
  O23      1.0000 0.55153  0.61792  0.49249  Biso   1.000  O 
  O24      1.0000 0.55259  0.62383  0.98925  Biso   1.000  O 
  O25      1.0000 0.45268  0.38398  0.00549  Biso   1.000  O 
  O26      1.0000 0.44495  0.37853  0.50694  Biso   1.000  O 
  O27      1.0000 0.44615  0.87879  0.51497  Biso   1.000  O 
  O28      1.0000 0.43997  0.37130  0.25661  Biso   1.000  O 
  O29      1.0000 0.44837  0.37227  0.75599  Biso   1.000  O 
  O30      1.0000 0.44371  0.85136  0.26763  Biso   1.000  O 
  O31      1.0000 0.45263  0.87135  0.76968  Biso   1.000  O 
