data_image0
_cell_length_a       10.2095
_cell_length_b       10.3577
_cell_length_c       10.4702
_cell_angle_alpha    89.9053
_cell_angle_beta     80.583
_cell_angle_gamma    90.2448

_symmetry_space_group_name_H-M    "P 1"
_symmetry_int_tables_number       1

loop_
  _symmetry_equiv_pos_as_xyz
  'x, y, z'

loop_
  _atom_site_label
  _atom_site_occupancy
  _atom_site_fract_x
  _atom_site_fract_y
  _atom_site_fract_z
  _atom_site_thermal_displace_type
  _atom_site_B_iso_or_equiv
  _atom_site_type_symbol
  Hf1      1.0000 0.14595  0.99785  0.15906  Biso   1.000  Hf
  Hf2      1.0000 0.14144  0.01599  0.64460  Biso   1.000  Hf
  Hf3      1.0000 0.13888  0.51707  0.14703  Biso   1.000  Hf
  Hf4      1.0000 0.14141  0.52020  0.64546  Biso   1.000  Hf
  Hf5      1.0000 0.64286  0.01572  0.14589  Biso   1.000  Hf
  Hf6      1.0000 0.63797  0.01964  0.64732  Biso   1.000  Hf
  Hf7      1.0000 0.63169  0.53238  0.14932  Biso   1.000  Hf
  Hf8      1.0000 0.64118  0.52237  0.64312  Biso   1.000  Hf
  Hf9      1.0000 0.13671  0.22848  0.39927  Biso   1.000  Hf
  La1      1.0000 0.12656  0.24281  0.88725  Biso   1.000  La
  Hf10     1.0000 0.13538  0.72298  0.39768  Biso   1.000  Hf
  Hf11     1.0000 0.14066  0.72483  0.89577  Biso   1.000  Hf
  Hf12     1.0000 0.63660  0.22811  0.39874  Biso   1.000  Hf
  Hf13     1.0000 0.64237  0.22942  0.88747  Biso   1.000  Hf
  Hf14     1.0000 0.64131  0.72992  0.39741  Biso   1.000  Hf
  Hf15     1.0000 0.63858  0.73346  0.89339  Biso   1.000  Hf
  La2      1.0000 0.36970  0.25907  0.11042  Biso   1.000  La
  Hf16     1.0000 0.36502  0.27131  0.60297  Biso   1.000  Hf
  Hf17     1.0000 0.36272  0.76767  0.10272  Biso   1.000  Hf
  Hf18     1.0000 0.36470  0.77058  0.60482  Biso   1.000  Hf
  Hf19     1.0000 0.82145  0.28276  0.10694  Biso   1.000  Hf
  Hf20     1.0000 0.86325  0.27135  0.60440  Biso   1.000  Hf
  Hf21     1.0000 0.86406  0.76875  0.10150  Biso   1.000  Hf
  Hf22     1.0000 0.86178  0.77190  0.60086  Biso   1.000  Hf
  Hf23     1.0000 0.36048  0.48065  0.35666  Biso   1.000  Hf
  Hf24     1.0000 0.36850  0.48075  0.85236  Biso   1.000  Hf
  Hf25     1.0000 0.36419  0.97857  0.35938  Biso   1.000  Hf
  Hf26     1.0000 0.35587  0.97829  0.85553  Biso   1.000  Hf
  Hf27     1.0000 0.86091  0.47538  0.35302  Biso   1.000  Hf
  Hf28     1.0000 0.85693  0.48653  0.85349  Biso   1.000  Hf
  Hf29     1.0000 0.86009  0.98292  0.35252  Biso   1.000  Hf
  Hf30     1.0000 0.86478  0.97449  0.85210  Biso   1.000  Hf
  O1       1.0000 0.03399  0.16194  0.57809  Biso   1.000  O 
  O2       1.0000 0.03437  0.66284  0.07949  Biso   1.000  O 
  O3       1.0000 0.03215  0.66355  0.57647  Biso   1.000  O 
  O4       1.0000 0.57988  0.18128  0.07988  Biso   1.000  O 
  O5       1.0000 0.53928  0.17025  0.58145  Biso   1.000  O 
  O6       1.0000 0.54032  0.68244  0.08172  Biso   1.000  O 
  O7       1.0000 0.54040  0.67412  0.58292  Biso   1.000  O 
  O8       1.0000 0.02358  0.09825  0.31023  Biso   1.000  O 
  O9       1.0000 0.03906  0.06057  0.82467  Biso   1.000  O 
  O10      1.0000 0.02969  0.58177  0.32751  Biso   1.000  O 
  O11      1.0000 0.03814  0.57714  0.82915  Biso   1.000  O 
  O12      1.0000 0.53661  0.07879  0.33120  Biso   1.000  O 
  O13      1.0000 0.53371  0.07850  0.83617  Biso   1.000  O 
  O14      1.0000 0.53504  0.58516  0.33754  Biso   1.000  O 
  O15      1.0000 0.54171  0.58197  0.82983  Biso   1.000  O 
  O16      1.0000 0.45850  0.44370  0.17366  Biso   1.000  O 
  O17      1.0000 0.47213  0.42316  0.66105  Biso   1.000  O 
  O18      1.0000 0.45958  0.92993  0.16556  Biso   1.000  O 
  O19      1.0000 0.46433  0.91959  0.67144  Biso   1.000  O 
  O20      1.0000 0.96180  0.39884  0.17419  Biso   1.000  O 
  O21      1.0000 0.97288  0.40778  0.68031  Biso   1.000  O 
  O22      1.0000 0.96271  0.92545  0.16254  Biso   1.000  O 
  O23      1.0000 0.96531  0.91373  0.66532  Biso   1.000  O 
  O24      1.0000 0.46205  0.32657  0.41514  Biso   1.000  O 
  O25      1.0000 0.47251  0.32723  0.89923  Biso   1.000  O 
  O26      1.0000 0.46721  0.82976  0.42031  Biso   1.000  O 
  O27      1.0000 0.46336  0.83135  0.91821  Biso   1.000  O 
  O28      1.0000 0.96512  0.33558  0.42769  Biso   1.000  O 
  O29      1.0000 0.93322  0.34003  0.93930  Biso   1.000  O 
  O30      1.0000 0.96814  0.83662  0.41523  Biso   1.000  O 
  O31      1.0000 0.96442  0.82377  0.91835  Biso   1.000  O 
  O32      1.0000 0.26205  0.11242  0.26019  Biso   1.000  O 
  O33      1.0000 0.28554  0.12317  0.73343  Biso   1.000  O 
  O34      1.0000 0.27132  0.62824  0.24212  Biso   1.000  O 
  O35      1.0000 0.27779  0.63048  0.74026  Biso   1.000  O 
  O36      1.0000 0.77263  0.13252  0.24276  Biso   1.000  O 
  O37      1.0000 0.77518  0.12784  0.73991  Biso   1.000  O 
  O38      1.0000 0.77672  0.63060  0.24039  Biso   1.000  O 
  O39      1.0000 0.77855  0.63232  0.73800  Biso   1.000  O 
  O40      1.0000 0.27688  0.12043  0.49351  Biso   1.000  O 
  O41      1.0000 0.24423  0.10185  0.00502  Biso   1.000  O 
  O42      1.0000 0.27499  0.62122  0.49174  Biso   1.000  O 
  O43      1.0000 0.28066  0.62414  0.99053  Biso   1.000  O 
  O44      1.0000 0.77590  0.12020  0.49074  Biso   1.000  O 
  O45      1.0000 0.79931  0.11940  0.98779  Biso   1.000  O 
  O46      1.0000 0.77701  0.61978  0.48821  Biso   1.000  O 
  O47      1.0000 0.77518  0.62695  0.98948  Biso   1.000  O 
  O48      1.0000 0.22919  0.39423  0.00695  Biso   1.000  O 
  O49      1.0000 0.22451  0.37734  0.51071  Biso   1.000  O 
  O50      1.0000 0.22366  0.86726  0.01144  Biso   1.000  O 
  O51      1.0000 0.22634  0.87587  0.50926  Biso   1.000  O 
  O52      1.0000 0.70388  0.39319  0.00932  Biso   1.000  O 
  O53      1.0000 0.72616  0.37799  0.50829  Biso   1.000  O 
  O54      1.0000 0.72604  0.87981  0.00862  Biso   1.000  O 
  O55      1.0000 0.72566  0.88045  0.50913  Biso   1.000  O 
  O56      1.0000 0.21418  0.37493  0.27067  Biso   1.000  O 
  O57      1.0000 0.24156  0.38208  0.74622  Biso   1.000  O 
  O58      1.0000 0.22726  0.86325  0.26125  Biso   1.000  O 
  O59      1.0000 0.22591  0.86783  0.75977  Biso   1.000  O 
  O60      1.0000 0.71138  0.37730  0.26279  Biso   1.000  O 
  O61      1.0000 0.72934  0.37332  0.75565  Biso   1.000  O 
  O62      1.0000 0.72757  0.87196  0.25935  Biso   1.000  O 
  O63      1.0000 0.72393  0.87124  0.75736  Biso   1.000  O 
