data_image0
_cell_length_a       10.1949
_cell_length_b       10.3405
_cell_length_c       10.4545
_cell_angle_alpha    89.9617
_cell_angle_beta     80.9123
_cell_angle_gamma    89.9276

_symmetry_space_group_name_H-M    "P 1"
_symmetry_int_tables_number       1

loop_
  _symmetry_equiv_pos_as_xyz
  'x, y, z'

loop_
  _atom_site_label
  _atom_site_occupancy
  _atom_site_fract_x
  _atom_site_fract_y
  _atom_site_fract_z
  _atom_site_thermal_displace_type
  _atom_site_B_iso_or_equiv
  _atom_site_type_symbol
  La1      1.0000 0.13181  0.00176  0.13754  Biso   1.000  La
  Hf1      1.0000 0.13799  0.02137  0.64665  Biso   1.000  Hf
  Hf2      1.0000 0.13994  0.52403  0.14408  Biso   1.000  Hf
  Hf3      1.0000 0.13796  0.52181  0.64492  Biso   1.000  Hf
  Hf4      1.0000 0.63344  0.01658  0.14675  Biso   1.000  Hf
  Hf5      1.0000 0.64055  0.02215  0.64794  Biso   1.000  Hf
  Hf6      1.0000 0.63990  0.51408  0.14687  Biso   1.000  Hf
  Hf7      1.0000 0.64006  0.51992  0.64643  Biso   1.000  Hf
  Hf8      1.0000 0.13630  0.22792  0.39416  Biso   1.000  Hf
  Hf9      1.0000 0.14819  0.23359  0.88694  Biso   1.000  Hf
  Hf10     1.0000 0.13878  0.72750  0.39698  Biso   1.000  Hf
  Hf11     1.0000 0.14087  0.72874  0.89342  Biso   1.000  Hf
  Hf12     1.0000 0.63290  0.23072  0.40051  Biso   1.000  Hf
  Hf13     1.0000 0.63918  0.22980  0.89798  Biso   1.000  Hf
  Hf14     1.0000 0.63362  0.72534  0.39757  Biso   1.000  Hf
  Hf15     1.0000 0.64567  0.72665  0.89506  Biso   1.000  Hf
  Hf16     1.0000 0.35540  0.26846  0.10352  Biso   1.000  Hf
  Hf17     1.0000 0.35944  0.27145  0.60219  Biso   1.000  Hf
  Hf18     1.0000 0.36921  0.76377  0.10187  Biso   1.000  Hf
  Hf19     1.0000 0.35994  0.77054  0.60330  Biso   1.000  Hf
  La2      1.0000 0.87481  0.25816  0.11329  Biso   1.000  La
  Hf20     1.0000 0.86103  0.27181  0.60493  Biso   1.000  Hf
  Hf21     1.0000 0.85684  0.76677  0.10642  Biso   1.000  Hf
  Hf22     1.0000 0.86216  0.77173  0.60396  Biso   1.000  Hf
  Hf23     1.0000 0.35738  0.47776  0.35180  Biso   1.000  Hf
  Hf24     1.0000 0.36515  0.48041  0.85240  Biso   1.000  Hf
  Hf25     1.0000 0.35738  0.97880  0.35578  Biso   1.000  Hf
  Hf26     1.0000 0.36842  0.97496  0.84910  Biso   1.000  Hf
  Hf27     1.0000 0.86200  0.48350  0.35642  Biso   1.000  Hf
  Hf28     1.0000 0.86241  0.47688  0.85396  Biso   1.000  Hf
  Hf29     1.0000 0.84933  0.97915  0.36083  Biso   1.000  Hf
  Hf30     1.0000 0.86218  0.97709  0.85607  Biso   1.000  Hf
  O1       1.0000 0.08358  0.20570  0.08081  Biso   1.000  O 
  O2       1.0000 0.03615  0.17272  0.58357  Biso   1.000  O 
  O3       1.0000 0.04524  0.68963  0.08916  Biso   1.000  O 
  O4       1.0000 0.03706  0.67388  0.58375  Biso   1.000  O 
  O5       1.0000 0.53209  0.16783  0.08083  Biso   1.000  O 
  O6       1.0000 0.53210  0.16697  0.58124  Biso   1.000  O 
  O7       1.0000 0.54007  0.66282  0.07755  Biso   1.000  O 
  O8       1.0000 0.53308  0.66574  0.58085  Biso   1.000  O 
  O9       1.0000 0.02008  0.08542  0.33893  Biso   1.000  O 
  O10      1.0000 0.03935  0.07762  0.83909  Biso   1.000  O 
  O11      1.0000 0.03983  0.57881  0.33639  Biso   1.000  O 
  O12      1.0000 0.03830  0.57807  0.83253  Biso   1.000  O 
  O13      1.0000 0.52506  0.08370  0.33200  Biso   1.000  O 
  O14      1.0000 0.53806  0.08159  0.82768  Biso   1.000  O 
  O15      1.0000 0.53062  0.58096  0.32906  Biso   1.000  O 
  O16      1.0000 0.53873  0.58071  0.82944  Biso   1.000  O 
  O17      1.0000 0.46370  0.41412  0.17099  Biso   1.000  O 
  O18      1.0000 0.46704  0.41686  0.66898  Biso   1.000  O 
  O19      1.0000 0.46183  0.91735  0.16962  Biso   1.000  O 
  O20      1.0000 0.46787  0.91569  0.66862  Biso   1.000  O 
  O21      1.0000 0.95878  0.44874  0.16798  Biso   1.000  O 
  O22      1.0000 0.96272  0.42465  0.66427  Biso   1.000  O 
  O23      1.0000 0.91972  0.94115  0.16418  Biso   1.000  O 
  O24      1.0000 0.96358  0.92182  0.66931  Biso   1.000  O 
  O25      1.0000 0.46009  0.33140  0.42112  Biso   1.000  O 
  O26      1.0000 0.46625  0.33175  0.91924  Biso   1.000  O 
  O27      1.0000 0.46221  0.83064  0.42211  Biso   1.000  O 
  O28      1.0000 0.47828  0.83270  0.91889  Biso   1.000  O 
  O29      1.0000 0.96014  0.32928  0.41596  Biso   1.000  O 
  O30      1.0000 0.97097  0.32795  0.90221  Biso   1.000  O 
  O31      1.0000 0.96276  0.82965  0.41486  Biso   1.000  O 
  O32      1.0000 0.96619  0.83009  0.92141  Biso   1.000  O 
  O33      1.0000 0.27809  0.13215  0.24799  Biso   1.000  O 
  O34      1.0000 0.27718  0.12854  0.73604  Biso   1.000  O 
  O35      1.0000 0.27833  0.62417  0.23831  Biso   1.000  O 
  O36      1.0000 0.27668  0.62925  0.73918  Biso   1.000  O 
  O37      1.0000 0.75235  0.12000  0.25863  Biso   1.000  O 
  O38      1.0000 0.77793  0.12976  0.74178  Biso   1.000  O 
  O39      1.0000 0.77141  0.62986  0.24382  Biso   1.000  O 
  O40      1.0000 0.77865  0.62926  0.74013  Biso   1.000  O 
  O41      1.0000 0.27147  0.12039  0.49226  Biso   1.000  O 
  O42      1.0000 0.29189  0.12400  0.97601  Biso   1.000  O 
  O43      1.0000 0.27493  0.62040  0.49052  Biso   1.000  O 
  O44      1.0000 0.27765  0.62046  0.98826  Biso   1.000  O 
  O45      1.0000 0.77194  0.12209  0.49673  Biso   1.000  O 
  O46      1.0000 0.76432  0.10858  0.98877  Biso   1.000  O 
  O47      1.0000 0.77493  0.62220  0.49250  Biso   1.000  O 
  O48      1.0000 0.78158  0.61908  0.99205  Biso   1.000  O 
  O49      1.0000 0.23132  0.38743  0.00243  Biso   1.000  O 
  O50      1.0000 0.22092  0.37958  0.50724  Biso   1.000  O 
  O51      1.0000 0.24643  0.86490  0.99194  Biso   1.000  O 
  O52      1.0000 0.22200  0.88024  0.51090  Biso   1.000  O 
  O53      1.0000 0.72037  0.38209  0.00373  Biso   1.000  O 
  O54      1.0000 0.72319  0.37940  0.51238  Biso   1.000  O 
  O55      1.0000 0.72358  0.87208  0.01046  Biso   1.000  O 
  O56      1.0000 0.72209  0.87846  0.51247  Biso   1.000  O 
  O57      1.0000 0.21984  0.37180  0.25654  Biso   1.000  O 
  O58      1.0000 0.22840  0.37357  0.75399  Biso   1.000  O 
  O59      1.0000 0.23499  0.85692  0.26333  Biso   1.000  O 
  O60      1.0000 0.22490  0.87062  0.75582  Biso   1.000  O 
  O61      1.0000 0.71695  0.37658  0.27061  Biso   1.000  O 
  O62      1.0000 0.72581  0.37028  0.75827  Biso   1.000  O 
  O63      1.0000 0.71046  0.86620  0.26521  Biso   1.000  O 
  O64      1.0000 0.72769  0.87042  0.75944  Biso   1.000  O 
