data_image0
_cell_length_a       10.2303
_cell_length_b       10.3344
_cell_length_c       10.5005
_cell_angle_alpha    90.0905
_cell_angle_beta     80.5143
_cell_angle_gamma    90.3413

_symmetry_space_group_name_H-M    "P 1"
_symmetry_int_tables_number       1

loop_
  _symmetry_equiv_pos_as_xyz
  'x, y, z'

loop_
  _atom_site_label
  _atom_site_occupancy
  _atom_site_fract_x
  _atom_site_fract_y
  _atom_site_fract_z
  _atom_site_thermal_displace_type
  _atom_site_B_iso_or_equiv
  _atom_site_type_symbol
  La1      1.0000 0.13179  0.01248  0.14175  Biso   1.000  La
  Hf1      1.0000 0.14169  0.02271  0.64721  Biso   1.000  Hf
  Hf2      1.0000 0.13595  0.52063  0.14776  Biso   1.000  Hf
  Hf3      1.0000 0.13804  0.52103  0.64507  Biso   1.000  Hf
  Hf4      1.0000 0.64052  0.01946  0.14822  Biso   1.000  Hf
  Hf5      1.0000 0.63973  0.02199  0.64676  Biso   1.000  Hf
  Hf6      1.0000 0.63641  0.51873  0.14537  Biso   1.000  Hf
  Hf7      1.0000 0.64695  0.52070  0.63920  Biso   1.000  Hf
  Hf8      1.0000 0.13942  0.22883  0.39796  Biso   1.000  Hf
  Hf9      1.0000 0.13840  0.23464  0.89411  Biso   1.000  Hf
  Hf10     1.0000 0.14055  0.72629  0.39646  Biso   1.000  Hf
  Hf11     1.0000 0.13485  0.73242  0.89597  Biso   1.000  Hf
  Hf12     1.0000 0.63692  0.22916  0.39613  Biso   1.000  Hf
  Hf13     1.0000 0.64246  0.22631  0.89752  Biso   1.000  Hf
  Hf14     1.0000 0.63435  0.72609  0.39768  Biso   1.000  Hf
  Hf15     1.0000 0.64668  0.73356  0.89364  Biso   1.000  Hf
  Hf16     1.0000 0.36162  0.26536  0.10594  Biso   1.000  Hf
  Hf17     1.0000 0.36059  0.27118  0.60212  Biso   1.000  Hf
  Hf18     1.0000 0.36514  0.76757  0.10403  Biso   1.000  Hf
  Hf19     1.0000 0.35945  0.77370  0.60355  Biso   1.000  Hf
  Hf20     1.0000 0.85753  0.27367  0.10248  Biso   1.000  Hf
  Hf21     1.0000 0.86308  0.27084  0.60387  Biso   1.000  Hf
  Hf22     1.0000 0.85331  0.76648  0.10632  Biso   1.000  Hf
  Hf23     1.0000 0.86564  0.77390  0.60224  Biso   1.000  Hf
  Hf24     1.0000 0.35832  0.47726  0.35282  Biso   1.000  Hf
  La2      1.0000 0.36825  0.48754  0.85832  Biso   1.000  La
  Hf25     1.0000 0.36198  0.97900  0.35498  Biso   1.000  Hf
  Hf26     1.0000 0.36405  0.97940  0.85228  Biso   1.000  Hf
  Hf27     1.0000 0.86025  0.47799  0.35322  Biso   1.000  Hf
  Hf28     1.0000 0.85945  0.48051  0.85175  Biso   1.000  Hf
  Hf29     1.0000 0.85302  0.97933  0.36075  Biso   1.000  Hf
  Hf30     1.0000 0.86359  0.98129  0.85460  Biso   1.000  Hf
  O1       1.0000 0.03060  0.18664  0.07434  Biso   1.000  O 
  O2       1.0000 0.03735  0.17262  0.58489  Biso   1.000  O 
  O3       1.0000 0.02745  0.67104  0.08278  Biso   1.000  O 
  O4       1.0000 0.03608  0.66931  0.57797  Biso   1.000  O 
  O5       1.0000 0.53921  0.16595  0.08538  Biso   1.000  O 
  O6       1.0000 0.53346  0.16549  0.57923  Biso   1.000  O 
  O7       1.0000 0.53516  0.66418  0.07540  Biso   1.000  O 
  O8       1.0000 0.53273  0.66584  0.58144  Biso   1.000  O 
  O9       1.0000 0.02266  0.08628  0.34641  Biso   1.000  O 
  O10      1.0000 0.03766  0.08215  0.83187  Biso   1.000  O 
  O11      1.0000 0.03304  0.58304  0.32964  Biso   1.000  O 
  O12      1.0000 0.03434  0.58057  0.83069  Biso   1.000  O 
  O13      1.0000 0.53705  0.07784  0.33315  Biso   1.000  O 
  O14      1.0000 0.54171  0.07670  0.83009  Biso   1.000  O 
  O15      1.0000 0.53226  0.58071  0.32822  Biso   1.000  O 
  O16      1.0000 0.56796  0.57895  0.82266  Biso   1.000  O 
  O17      1.0000 0.46237  0.41781  0.16818  Biso   1.000  O 
  O18      1.0000 0.47738  0.41366  0.65368  Biso   1.000  O 
  O19      1.0000 0.46567  0.91940  0.16931  Biso   1.000  O 
  O20      1.0000 0.46698  0.91693  0.67037  Biso   1.000  O 
  O21      1.0000 0.95828  0.42331  0.16989  Biso   1.000  O 
  O22      1.0000 0.96296  0.42216  0.66686  Biso   1.000  O 
  O23      1.0000 0.93197  0.92118  0.17722  Biso   1.000  O 
  O24      1.0000 0.96771  0.91934  0.67171  Biso   1.000  O 
  O25      1.0000 0.46269  0.32743  0.41516  Biso   1.000  O 
  O26      1.0000 0.46944  0.31339  0.92571  Biso   1.000  O 
  O27      1.0000 0.46391  0.83070  0.42204  Biso   1.000  O 
  O28      1.0000 0.47256  0.82902  0.91725  Biso   1.000  O 
  O29      1.0000 0.96653  0.33449  0.42075  Biso   1.000  O 
  O30      1.0000 0.96081  0.33403  0.91460  Biso   1.000  O 
  O31      1.0000 0.96723  0.83409  0.41847  Biso   1.000  O 
  O32      1.0000 0.96475  0.83573  0.92452  Biso   1.000  O 
  O33      1.0000 0.28210  0.13306  0.25074  Biso   1.000  O 
  O34      1.0000 0.27923  0.12907  0.73929  Biso   1.000  O 
  O35      1.0000 0.27618  0.62318  0.24170  Biso   1.000  O 
  O36      1.0000 0.26339  0.64109  0.73578  Biso   1.000  O 
  O37      1.0000 0.77329  0.13163  0.24353  Biso   1.000  O 
  O38      1.0000 0.77945  0.12795  0.74014  Biso   1.000  O 
  O39      1.0000 0.77081  0.62749  0.24153  Biso   1.000  O 
  O40      1.0000 0.79001  0.63196  0.73417  Biso   1.000  O 
  O41      1.0000 0.27497  0.12006  0.49315  Biso   1.000  O 
  O42      1.0000 0.28298  0.12686  0.98073  Biso   1.000  O 
  O43      1.0000 0.27553  0.62028  0.48940  Biso   1.000  O 
  O44      1.0000 0.25865  0.63067  0.00449  Biso   1.000  O 
  O45      1.0000 0.77195  0.12264  0.49379  Biso   1.000  O 
  O46      1.0000 0.77781  0.12001  0.99177  Biso   1.000  O 
  O47      1.0000 0.77568  0.62181  0.48785  Biso   1.000  O 
  O48      1.0000 0.77503  0.62059  0.98995  Biso   1.000  O 
  O49      1.0000 0.21706  0.37312  0.01933  Biso   1.000  O 
  O50      1.0000 0.22504  0.37989  0.50693  Biso   1.000  O 
  O51      1.0000 0.24133  0.86930  0.99552  Biso   1.000  O 
  O52      1.0000 0.22447  0.87967  0.51061  Biso   1.000  O 
  O53      1.0000 0.72222  0.38002  0.00823  Biso   1.000  O 
  O54      1.0000 0.72804  0.37740  0.50621  Biso   1.000  O 
  O55      1.0000 0.72493  0.87945  0.00999  Biso   1.000  O 
  O56      1.0000 0.72431  0.87823  0.51208  Biso   1.000  O 
  O57      1.0000 0.22074  0.37098  0.26076  Biso   1.000  O 
  O58      1.0000 0.21793  0.36699  0.74932  Biso   1.000  O 
  O59      1.0000 0.23666  0.85893  0.26427  Biso   1.000  O 
  O60      1.0000 0.22384  0.87683  0.75833  Biso   1.000  O 
  O61      1.0000 0.72055  0.37202  0.25982  Biso   1.000  O 
  O62      1.0000 0.72668  0.36834  0.75647  Biso   1.000  O 
  O63      1.0000 0.70999  0.86798  0.26576  Biso   1.000  O 
  O64      1.0000 0.72920  0.87246  0.75841  Biso   1.000  O 
