data_image0
_cell_length_a       10.2231
_cell_length_b       10.3348
_cell_length_c       10.5148
_cell_angle_alpha    90.1024
_cell_angle_beta     80.4976
_cell_angle_gamma    90.3111

_symmetry_space_group_name_H-M    "P 1"
_symmetry_int_tables_number       1

loop_
  _symmetry_equiv_pos_as_xyz
  'x, y, z'

loop_
  _atom_site_label
  _atom_site_occupancy
  _atom_site_fract_x
  _atom_site_fract_y
  _atom_site_fract_z
  _atom_site_thermal_displace_type
  _atom_site_B_iso_or_equiv
  _atom_site_type_symbol
  La1      1.0000 0.13560  0.01499  0.14235  Biso   1.000  La
  Hf1      1.0000 0.13833  0.02176  0.64658  Biso   1.000  Hf
  Hf2      1.0000 0.13796  0.51993  0.14303  Biso   1.000  Hf
  Hf3      1.0000 0.13618  0.52177  0.64802  Biso   1.000  Hf
  Hf4      1.0000 0.63969  0.02022  0.14595  Biso   1.000  Hf
  Hf5      1.0000 0.63998  0.02142  0.64905  Biso   1.000  Hf
  Hf6      1.0000 0.64539  0.51926  0.13974  Biso   1.000  Hf
  Hf7      1.0000 0.63749  0.52112  0.64398  Biso   1.000  Hf
  Hf8      1.0000 0.13917  0.22981  0.39769  Biso   1.000  Hf
  Hf9      1.0000 0.13853  0.23336  0.89402  Biso   1.000  Hf
  Hf10     1.0000 0.13392  0.73073  0.39716  Biso   1.000  Hf
  Hf11     1.0000 0.14200  0.72758  0.89446  Biso   1.000  Hf
  Hf12     1.0000 0.64006  0.22757  0.39757  Biso   1.000  Hf
  Hf13     1.0000 0.63976  0.22811  0.89591  Biso   1.000  Hf
  Hf14     1.0000 0.63961  0.73261  0.39829  Biso   1.000  Hf
  Hf15     1.0000 0.64024  0.72850  0.89417  Biso   1.000  Hf
  Hf16     1.0000 0.36076  0.27018  0.10213  Biso   1.000  Hf
  Hf17     1.0000 0.36139  0.26662  0.60584  Biso   1.000  Hf
  Hf18     1.0000 0.36608  0.76923  0.10259  Biso   1.000  Hf
  Hf19     1.0000 0.35793  0.77239  0.60534  Biso   1.000  Hf
  Hf20     1.0000 0.85987  0.27240  0.10222  Biso   1.000  Hf
  Hf21     1.0000 0.86014  0.27184  0.60392  Biso   1.000  Hf
  Hf22     1.0000 0.86031  0.76737  0.10144  Biso   1.000  Hf
  Hf23     1.0000 0.85967  0.77147  0.60558  Biso   1.000  Hf
  La2      1.0000 0.36435  0.48500  0.35747  Biso   1.000  La
  Hf24     1.0000 0.36161  0.47821  0.85323  Biso   1.000  Hf
  Hf25     1.0000 0.36200  0.98007  0.35680  Biso   1.000  Hf
  Hf26     1.0000 0.36372  0.97823  0.85181  Biso   1.000  Hf
  Hf27     1.0000 0.86025  0.47972  0.35383  Biso   1.000  Hf
  Hf28     1.0000 0.85993  0.47855  0.85071  Biso   1.000  Hf
  Hf29     1.0000 0.85456  0.98069  0.36003  Biso   1.000  Hf
  Hf30     1.0000 0.86243  0.97889  0.85580  Biso   1.000  Hf
  O1       1.0000 0.03528  0.18992  0.07514  Biso   1.000  O 
  O2       1.0000 0.03274  0.16944  0.58441  Biso   1.000  O 
  O3       1.0000 0.03729  0.67144  0.07711  Biso   1.000  O 
  O4       1.0000 0.02540  0.66475  0.58039  Biso   1.000  O 
  O5       1.0000 0.53615  0.16576  0.07775  Biso   1.000  O 
  O6       1.0000 0.53665  0.16568  0.58590  Biso   1.000  O 
  O7       1.0000 0.53748  0.66581  0.07722  Biso   1.000  O 
  O8       1.0000 0.53054  0.66485  0.57767  Biso   1.000  O 
  O9       1.0000 0.02449  0.08596  0.34637  Biso   1.000  O 
  O10      1.0000 0.03626  0.08133  0.83246  Biso   1.000  O 
  O11      1.0000 0.03420  0.58100  0.33012  Biso   1.000  O 
  O12      1.0000 0.03322  0.58290  0.82813  Biso   1.000  O 
  O13      1.0000 0.54096  0.07543  0.33177  Biso   1.000  O 
  O14      1.0000 0.53787  0.08028  0.83042  Biso   1.000  O 
  O15      1.0000 0.56142  0.58337  0.32036  Biso   1.000  O 
  O16      1.0000 0.53515  0.58237  0.82721  Biso   1.000  O 
  O17      1.0000 0.47549  0.41393  0.15353  Biso   1.000  O 
  O18      1.0000 0.46372  0.41854  0.66744  Biso   1.000  O 
  O19      1.0000 0.46576  0.91893  0.16969  Biso   1.000  O 
  O20      1.0000 0.46677  0.91697  0.67173  Biso   1.000  O 
  O21      1.0000 0.95898  0.42456  0.16802  Biso   1.000  O 
  O22      1.0000 0.96204  0.41970  0.66935  Biso   1.000  O 
  O23      1.0000 0.93840  0.91680  0.17924  Biso   1.000  O 
  O24      1.0000 0.96475  0.91768  0.67251  Biso   1.000  O 
  O25      1.0000 0.46468  0.31014  0.42475  Biso   1.000  O 
  O26      1.0000 0.46724  0.33061  0.91550  Biso   1.000  O 
  O27      1.0000 0.46269  0.82864  0.42277  Biso   1.000  O 
  O28      1.0000 0.47456  0.83531  0.91948  Biso   1.000  O 
  O29      1.0000 0.96376  0.33414  0.42200  Biso   1.000  O 
  O30      1.0000 0.96323  0.33421  0.91388  Biso   1.000  O 
  O31      1.0000 0.96244  0.83403  0.42245  Biso   1.000  O 
  O32      1.0000 0.96930  0.83497  0.92203  Biso   1.000  O 
  O33      1.0000 0.28706  0.13529  0.25078  Biso   1.000  O 
  O34      1.0000 0.27530  0.12729  0.73959  Biso   1.000  O 
  O35      1.0000 0.26388  0.63577  0.23272  Biso   1.000  O 
  O36      1.0000 0.27608  0.62867  0.74239  Biso   1.000  O 
  O37      1.0000 0.77620  0.12970  0.24100  Biso   1.000  O 
  O38      1.0000 0.77740  0.12929  0.74234  Biso   1.000  O 
  O39      1.0000 0.78723  0.62897  0.23592  Biso   1.000  O 
  O40      1.0000 0.77337  0.62905  0.73871  Biso   1.000  O 
  O41      1.0000 0.27297  0.11963  0.49450  Biso   1.000  O 
  O42      1.0000 0.28513  0.12803  0.97901  Biso   1.000  O 
  O43      1.0000 0.25914  0.63405  0.50373  Biso   1.000  O 
  O44      1.0000 0.27681  0.61761  0.98798  Biso   1.000  O 
  O45      1.0000 0.77340  0.12213  0.49452  Biso   1.000  O 
  O46      1.0000 0.77664  0.12046  0.99083  Biso   1.000  O 
  O47      1.0000 0.77359  0.62229  0.49034  Biso   1.000  O 
  O48      1.0000 0.77633  0.61979  0.98668  Biso   1.000  O 
  O49      1.0000 0.22698  0.38032  0.00531  Biso   1.000  O 
  O50      1.0000 0.21485  0.37193  0.52083  Biso   1.000  O 
  O51      1.0000 0.24078  0.86592  0.99610  Biso   1.000  O 
  O52      1.0000 0.22312  0.88234  0.51186  Biso   1.000  O 
  O53      1.0000 0.72653  0.37786  0.00525  Biso   1.000  O 
  O54      1.0000 0.72331  0.37955  0.50897  Biso   1.000  O 
  O55      1.0000 0.72630  0.87773  0.00941  Biso   1.000  O 
  O56      1.0000 0.72360  0.88020  0.51306  Biso   1.000  O 
  O57      1.0000 0.21286  0.36474  0.24906  Biso   1.000  O 
  O58      1.0000 0.22461  0.37270  0.76025  Biso   1.000  O 
  O59      1.0000 0.23610  0.86423  0.26709  Biso   1.000  O 
  O60      1.0000 0.22386  0.87131  0.75743  Biso   1.000  O 
  O61      1.0000 0.72371  0.37024  0.25882  Biso   1.000  O 
  O62      1.0000 0.72254  0.37063  0.75745  Biso   1.000  O 
  O63      1.0000 0.71269  0.87094  0.26383  Biso   1.000  O 
  O64      1.0000 0.72656  0.87089  0.76103  Biso   1.000  O 
