data_image0
_cell_length_a       10.1764
_cell_length_b       10.373
_cell_length_c       10.4776
_cell_angle_alpha    90.0361
_cell_angle_beta     80.8155
_cell_angle_gamma    90.3586

_symmetry_space_group_name_H-M    "P 1"
_symmetry_int_tables_number       1

loop_
  _symmetry_equiv_pos_as_xyz
  'x, y, z'

loop_
  _atom_site_label
  _atom_site_occupancy
  _atom_site_fract_x
  _atom_site_fract_y
  _atom_site_fract_z
  _atom_site_thermal_displace_type
  _atom_site_B_iso_or_equiv
  _atom_site_type_symbol
  La1      1.0000 0.12987  0.01152  0.14019  Biso   1.000  La
  Hf1      1.0000 0.13655  0.02197  0.64860  Biso   1.000  Hf
  Hf2      1.0000 0.14104  0.52176  0.14548  Biso   1.000  Hf
  Hf3      1.0000 0.13760  0.52206  0.64590  Biso   1.000  Hf
  Hf4      1.0000 0.64853  0.01968  0.13811  Biso   1.000  Hf
  Hf5      1.0000 0.63765  0.02238  0.64630  Biso   1.000  Hf
  Hf6      1.0000 0.63729  0.51800  0.14624  Biso   1.000  Hf
  Hf7      1.0000 0.63889  0.52029  0.64702  Biso   1.000  Hf
  Hf8      1.0000 0.13241  0.23328  0.39861  Biso   1.000  Hf
  Hf9      1.0000 0.13877  0.23250  0.89377  Biso   1.000  Hf
  Hf10     1.0000 0.13996  0.72847  0.39617  Biso   1.000  Hf
  Hf11     1.0000 0.14129  0.72851  0.89450  Biso   1.000  Hf
  Hf12     1.0000 0.64100  0.23715  0.39823  Biso   1.000  Hf
  Hf13     1.0000 0.63833  0.22830  0.89686  Biso   1.000  Hf
  Hf14     1.0000 0.63798  0.72354  0.39780  Biso   1.000  Hf
  Hf15     1.0000 0.64165  0.72762  0.89285  Biso   1.000  Hf
  Hf16     1.0000 0.35995  0.27149  0.10373  Biso   1.000  Hf
  Hf17     1.0000 0.35860  0.27146  0.60541  Biso   1.000  Hf
  Hf18     1.0000 0.36750  0.76669  0.10129  Biso   1.000  Hf
  Hf19     1.0000 0.36112  0.76745  0.60613  Biso   1.000  Hf
  Hf20     1.0000 0.86192  0.27643  0.10208  Biso   1.000  Hf
  Hf21     1.0000 0.85825  0.27234  0.60704  Biso   1.000  Hf
  Hf22     1.0000 0.85889  0.76282  0.10169  Biso   1.000  Hf
  Hf23     1.0000 0.86156  0.77165  0.60302  Biso   1.000  Hf
  Hf24     1.0000 0.35885  0.47821  0.35442  Biso   1.000  Hf
  Hf25     1.0000 0.36227  0.47790  0.85401  Biso   1.000  Hf
  La2      1.0000 0.37005  0.98845  0.35973  Biso   1.000  La
  Hf26     1.0000 0.36334  0.97801  0.85129  Biso   1.000  Hf
  Hf27     1.0000 0.86261  0.48196  0.35364  Biso   1.000  Hf
  Hf28     1.0000 0.86100  0.47967  0.85286  Biso   1.000  Hf
  Hf29     1.0000 0.85139  0.98028  0.36177  Biso   1.000  Hf
  Hf30     1.0000 0.86226  0.97758  0.85357  Biso   1.000  Hf
  O1       1.0000 0.03758  0.19320  0.07646  Biso   1.000  O 
  O2       1.0000 0.02709  0.17118  0.58763  Biso   1.000  O 
  O3       1.0000 0.04015  0.67661  0.08268  Biso   1.000  O 
  O4       1.0000 0.03394  0.66921  0.58134  Biso   1.000  O 
  O5       1.0000 0.53666  0.16861  0.08117  Biso   1.000  O 
  O6       1.0000 0.53150  0.16776  0.57872  Biso   1.000  O 
  O7       1.0000 0.54030  0.66594  0.07798  Biso   1.000  O 
  O8       1.0000 0.53821  0.66843  0.58720  Biso   1.000  O 
  O9       1.0000 0.02325  0.08232  0.34861  Biso   1.000  O 
  O10      1.0000 0.03740  0.07876  0.83465  Biso   1.000  O 
  O11      1.0000 0.03650  0.58262  0.32949  Biso   1.000  O 
  O12      1.0000 0.03588  0.58022  0.83070  Biso   1.000  O 
  O13      1.0000 0.57165  0.07708  0.32545  Biso   1.000  O 
  O14      1.0000 0.53774  0.07984  0.82900  Biso   1.000  O 
  O15      1.0000 0.53867  0.57189  0.33256  Biso   1.000  O 
  O16      1.0000 0.53761  0.57753  0.83162  Biso   1.000  O 
  O17      1.0000 0.46341  0.41734  0.17043  Biso   1.000  O 
  O18      1.0000 0.46401  0.41973  0.66922  Biso   1.000  O 
  O19      1.0000 0.47665  0.91764  0.15132  Biso   1.000  O 
  O20      1.0000 0.46251  0.92117  0.66526  Biso   1.000  O 
  O21      1.0000 0.96121  0.42807  0.16733  Biso   1.000  O 
  O22      1.0000 0.96224  0.42247  0.66825  Biso   1.000  O 
  O23      1.0000 0.92824  0.92291  0.17442  Biso   1.000  O 
  O24      1.0000 0.96215  0.92015  0.67086  Biso   1.000  O 
  O25      1.0000 0.45974  0.32338  0.41726  Biso   1.000  O 
  O26      1.0000 0.46597  0.33079  0.91857  Biso   1.000  O 
  O27      1.0000 0.46232  0.80677  0.42344  Biso   1.000  O 
  O28      1.0000 0.47282  0.82883  0.91230  Biso   1.000  O 
  O29      1.0000 0.95957  0.33400  0.42192  Biso   1.000  O 
  O30      1.0000 0.96168  0.33152  0.91266  Biso   1.000  O 
  O31      1.0000 0.96325  0.83134  0.41870  Biso   1.000  O 
  O32      1.0000 0.96838  0.83217  0.92116  Biso   1.000  O 
  O33      1.0000 0.26814  0.14760  0.24495  Biso   1.000  O 
  O34      1.0000 0.27646  0.12922  0.74129  Biso   1.000  O 
  O35      1.0000 0.28106  0.62259  0.23948  Biso   1.000  O 
  O36      1.0000 0.27629  0.62779  0.74130  Biso   1.000  O 
  O37      1.0000 0.78699  0.13358  0.23822  Biso   1.000  O 
  O38      1.0000 0.77489  0.12944  0.74218  Biso   1.000  O 
  O39      1.0000 0.77506  0.62748  0.24009  Biso   1.000  O 
  O40      1.0000 0.77679  0.62967  0.73963  Biso   1.000  O 
  O41      1.0000 0.25814  0.13344  0.50492  Biso   1.000  O 
  O42      1.0000 0.28375  0.12610  0.98043  Biso   1.000  O 
  O43      1.0000 0.27377  0.61962  0.49177  Biso   1.000  O 
  O44      1.0000 0.27714  0.61739  0.98982  Biso   1.000  O 
  O45      1.0000 0.77112  0.12407  0.49480  Biso   1.000  O 
  O46      1.0000 0.77787  0.12067  0.98874  Biso   1.000  O 
  O47      1.0000 0.77712  0.62033  0.49096  Biso   1.000  O 
  O48      1.0000 0.77758  0.61855  0.98907  Biso   1.000  O 
  O49      1.0000 0.22614  0.38033  0.00814  Biso   1.000  O 
  O50      1.0000 0.22274  0.38257  0.51010  Biso   1.000  O 
  O51      1.0000 0.24176  0.86652  0.99497  Biso   1.000  O 
  O52      1.0000 0.21616  0.87386  0.51946  Biso   1.000  O 
  O53      1.0000 0.72279  0.37962  0.00893  Biso   1.000  O 
  O54      1.0000 0.72230  0.38143  0.51081  Biso   1.000  O 
  O55      1.0000 0.72877  0.87590  0.00508  Biso   1.000  O 
  O56      1.0000 0.72202  0.87929  0.51115  Biso   1.000  O 
  O57      1.0000 0.21883  0.37738  0.26042  Biso   1.000  O 
  O58      1.0000 0.22360  0.37217  0.75859  Biso   1.000  O 
  O59      1.0000 0.23177  0.85237  0.25495  Biso   1.000  O 
  O60      1.0000 0.22343  0.87075  0.75861  Biso   1.000  O 
  O61      1.0000 0.72483  0.37249  0.25981  Biso   1.000  O 
  O62      1.0000 0.72309  0.37027  0.76027  Biso   1.000  O 
  O63      1.0000 0.71290  0.86638  0.26166  Biso   1.000  O 
  O64      1.0000 0.72501  0.87049  0.75770  Biso   1.000  O 
