data_image0
_cell_length_a       9.93495
_cell_length_b       5.18871
_cell_length_c       10.0193
_cell_angle_alpha    90.1681
_cell_angle_beta     89.1219
_cell_angle_gamma    89.9202

_symmetry_space_group_name_H-M    "P 1"
_symmetry_int_tables_number       1

loop_
  _symmetry_equiv_pos_as_xyz
  'x, y, z'

loop_
  _atom_site_label
  _atom_site_occupancy
  _atom_site_fract_x
  _atom_site_fract_y
  _atom_site_fract_z
  _atom_site_thermal_displace_type
  _atom_site_B_iso_or_equiv
  _atom_site_type_symbol
  Ag1      1.0000 0.12214  0.04974  0.10746  Biso   1.000  Ag
  Hf1      1.0000 0.14026  0.46212  0.37898  Biso   1.000  Hf
  Hf2      1.0000 0.36536  0.53313  0.13426  Biso   1.000  Hf
  Hf3      1.0000 0.36303  0.96565  0.37813  Biso   1.000  Hf
  O1       1.0000 0.03970  0.36613  0.19118  Biso   1.000  O
  O2       1.0000 0.03886  0.12813  0.44812  Biso   1.000  O
  O3       1.0000 0.46897  0.86453  0.19830  Biso   1.000  O
  O4       1.0000 0.46713  0.63464  0.45066  Biso   1.000  O
  O5       1.0000 0.28243  0.24679  0.25837  Biso   1.000  O
  O6       1.0000 0.27213  0.26160  0.50676  Biso   1.000  O
  O7       1.0000 0.22813  0.76188  0.50760  Biso   1.000  O
  O8       1.0000 0.23889  0.72424  0.26190  Biso   1.000  O
  Hf4      1.0000 0.13361  0.03767  0.63225  Biso   1.000  Hf
  Hf5      1.0000 0.13232  0.47541  0.87633  Biso   1.000  Hf
  Hf6      1.0000 0.36622  0.53615  0.62968  Biso   1.000  Hf
  Hf7      1.0000 0.36424  0.96840  0.88051  Biso   1.000  Hf
  O9       1.0000 0.03890  0.38240  0.69031  Biso   1.000  O
  O10      1.0000 0.03570  0.12939  0.90810  Biso   1.000  O
  O11      1.0000 0.46259  0.87108  0.69838  Biso   1.000  O
  O12      1.0000 0.45427  0.62295  0.94232  Biso   1.000  O
  O13      1.0000 0.27315  0.24363  0.75565  Biso   1.000  O
  O14      1.0000 0.26365  0.26312  0.00584  Biso   1.000  O
  O15      1.0000 0.22589  0.76577  0.00968  Biso   1.000  O
  O16      1.0000 0.22775  0.74349  0.75583  Biso   1.000  O
  Hf8      1.0000 0.63619  0.03261  0.12886  Biso   1.000  Hf
  Hf9      1.0000 0.63493  0.46843  0.37557  Biso   1.000  Hf
  Hf10     1.0000 0.86556  0.52988  0.12239  Biso   1.000  Hf
  Hf11     1.0000 0.87192  0.96955  0.37595  Biso   1.000  Hf
  O17      1.0000 0.54221  0.37316  0.19330  Biso   1.000  O
  O18      1.0000 0.53721  0.13302  0.44308  Biso   1.000  O
  O19      1.0000 0.96662  0.86322  0.18985  Biso   1.000  O
  O20      1.0000 0.96386  0.62666  0.43851  Biso   1.000  O
  O21      1.0000 0.77448  0.23404  0.24874  Biso   1.000  O
  O22      1.0000 0.77040  0.26538  0.49757  Biso   1.000  O
  O23      1.0000 0.73164  0.76667  0.49813  Biso   1.000  O
  O24      1.0000 0.73640  0.73674  0.24899  Biso   1.000  O
  Hf12     1.0000 0.63140  0.03260  0.62272  Biso   1.000  Hf
  Hf13     1.0000 0.63081  0.46234  0.87618  Biso   1.000  Hf
  Hf14     1.0000 0.86517  0.53166  0.62119  Biso   1.000  Hf
  Hf15     1.0000 0.85846  0.96026  0.86966  Biso   1.000  Hf
  O25      1.0000 0.53586  0.36832  0.69542  Biso   1.000  O
  O26      1.0000 0.53472  0.12797  0.94787  Biso   1.000  O
  O27      1.0000 0.95847  0.87013  0.68635  Biso   1.000  O
  O28      1.0000 0.95987  0.63292  0.94141  Biso   1.000  O
  O29      1.0000 0.76777  0.23398  0.74710  Biso   1.000  O
  O30      1.0000 0.77235  0.25779  0.99732  Biso   1.000  O
  O31      1.0000 0.72346  0.75512  0.99972  Biso   1.000  O
  O32      1.0000 0.72622  0.73167  0.74832  Biso   1.000  O
