data_image0
_cell_length_a       10.0993
_cell_length_b       10.1864
_cell_length_c       5.22002
_cell_angle_alpha    90.1286
_cell_angle_beta     80.6453
_cell_angle_gamma    89.536

_symmetry_space_group_name_H-M    "P 1"
_symmetry_int_tables_number       1

loop_
  _symmetry_equiv_pos_as_xyz
  'x, y, z'

loop_
  _atom_site_label
  _atom_site_occupancy
  _atom_site_fract_x
  _atom_site_fract_y
  _atom_site_fract_z
  _atom_site_thermal_displace_type
  _atom_site_B_iso_or_equiv
  _atom_site_type_symbol
  Al1      1.0000 0.12348  0.00958  0.32296  Biso   1.000  Al
  Hf1      1.0000 0.14006  0.22193  0.77867  Biso   1.000  Hf
  Hf2      1.0000 0.35610  0.26725  0.20271  Biso   1.000  Hf
  Hf3      1.0000 0.35965  0.47962  0.70875  Biso   1.000  Hf
  O1       1.0000 0.04631  0.15092  0.15186  Biso   1.000  O
  O2       1.0000 0.03246  0.07960  0.64761  Biso   1.000  O
  O3       1.0000 0.46526  0.41463  0.34458  Biso   1.000  O
  O4       1.0000 0.47111  0.34052  0.84757  Biso   1.000  O
  O5       1.0000 0.26452  0.11731  0.44109  Biso   1.000  O
  O6       1.0000 0.29658  0.14153  0.92547  Biso   1.000  O
  O7       1.0000 0.22322  0.38337  0.01672  Biso   1.000  O
  O8       1.0000 0.22581  0.36831  0.51830  Biso   1.000  O
  Hf4      1.0000 0.14125  0.52244  0.29335  Biso   1.000  Hf
  Hf5      1.0000 0.13899  0.73335  0.79476  Biso   1.000  Hf
  Hf6      1.0000 0.35522  0.77823  0.20920  Biso   1.000  Hf
  Hf7      1.0000 0.35715  0.98317  0.70225  Biso   1.000  Hf
  O9       1.0000 0.03417  0.66687  0.16129  Biso   1.000  O
  O10      1.0000 0.03605  0.58390  0.66284  Biso   1.000  O
  O11      1.0000 0.46611  0.91691  0.34343  Biso   1.000  O
  O12      1.0000 0.46042  0.83450  0.84208  Biso   1.000  O
  O13      1.0000 0.27638  0.63099  0.48175  Biso   1.000  O
  O14      1.0000 0.27619  0.62675  0.98177  Biso   1.000  O
  O15      1.0000 0.21888  0.89788  0.03254  Biso   1.000  O
  O16      1.0000 0.21646  0.87304  0.51993  Biso   1.000  O
  Hf8      1.0000 0.63880  0.02218  0.29256  Biso   1.000  Hf
  Hf9      1.0000 0.64087  0.23004  0.79364  Biso   1.000  Hf
  Hf10     1.0000 0.87067  0.26531  0.21139  Biso   1.000  Hf
  Hf11     1.0000 0.86257  0.47803  0.71392  Biso   1.000  Hf
  O17      1.0000 0.53477  0.16729  0.15554  Biso   1.000  O
  O18      1.0000 0.53626  0.08456  0.65439  Biso   1.000  O
  O19      1.0000 0.97067  0.41269  0.35054  Biso   1.000  O
  O20      1.0000 0.96849  0.33125  0.85107  Biso   1.000  O
  O21      1.0000 0.77792  0.12764  0.48163  Biso   1.000  O
  O22      1.0000 0.77842  0.12051  0.98344  Biso   1.000  O
  O23      1.0000 0.72857  0.37650  0.02515  Biso   1.000  O
  O24      1.0000 0.72780  0.37042  0.52188  Biso   1.000  O
  Hf12     1.0000 0.63801  0.51959  0.29284  Biso   1.000  Hf
  Hf13     1.0000 0.63600  0.72917  0.79552  Biso   1.000  Hf
  Hf14     1.0000 0.85968  0.77105  0.21386  Biso   1.000  Hf
  Hf15     1.0000 0.85944  0.97753  0.71005  Biso   1.000  Hf
  O25      1.0000 0.53165  0.66745  0.15852  Biso   1.000  O
  O26      1.0000 0.53361  0.58375  0.65668  Biso   1.000  O
  O27      1.0000 0.96708  0.91454  0.34589  Biso   1.000  O
  O28      1.0000 0.96214  0.83135  0.84763  Biso   1.000  O
  O29      1.0000 0.77618  0.62744  0.48453  Biso   1.000  O
  O30      1.0000 0.77474  0.62031  0.98416  Biso   1.000  O
  O31      1.0000 0.72112  0.87826  0.02187  Biso   1.000  O
  O32      1.0000 0.72271  0.87054  0.52179  Biso   1.000  O
