data_image0
_cell_length_a       5.14979
_cell_length_b       10.2708
_cell_length_c       10.5126
_cell_angle_alpha    90.2214
_cell_angle_beta     77.8707
_cell_angle_gamma    90.2678

_symmetry_space_group_name_H-M    "P 1"
_symmetry_int_tables_number       1

loop_
  _symmetry_equiv_pos_as_xyz
  'x, y, z'

loop_
  _atom_site_label
  _atom_site_occupancy
  _atom_site_fract_x
  _atom_site_fract_y
  _atom_site_fract_z
  _atom_site_thermal_displace_type
  _atom_site_B_iso_or_equiv
  _atom_site_type_symbol
  Hf1      1.0000 0.27147  0.01717  0.14852  Biso   1.000  Hf
  Hf2      1.0000 0.34321  0.22950  0.40062  Biso   1.000  Hf
  Hf3      1.0000 0.66400  0.27145  0.10528  Biso   1.000  Hf
  Hf4      1.0000 0.70762  0.47851  0.35084  Biso   1.000  Hf
  O1       1.0000 0.03800  0.17525  0.09695  Biso   1.000  O
  O2       1.0000 0.04998  0.09340  0.32773  Biso   1.000  O
  O3       1.0000 0.93943  0.40986  0.17516  Biso   1.000  O
  O4       1.0000 0.97430  0.33298  0.41974  Biso   1.000  O
  O5       1.0000 0.54872  0.10707  0.23892  Biso   1.000  O
  O6       1.0000 0.58588  0.11563  0.49816  Biso   1.000  O
  O7       1.0000 0.41707  0.38314  0.00694  Biso   1.000  O
  O8       1.0000 0.41531  0.38682  0.25733  Biso   1.000  O
  Hf5      1.0000 0.27882  0.02103  0.65084  Biso   1.000  Hf
  Hf6      1.0000 0.25703  0.23404  0.89863  Biso   1.000  Hf
  Hf7      1.0000 0.74232  0.26746  0.60625  Biso   1.000  Hf
  Hf8      1.0000 0.71401  0.47872  0.85423  Biso   1.000  Hf
  O9       1.0000 0.09370  0.16759  0.57969  Biso   1.000  O
  O10      1.0000 0.05591  0.08593  0.83436  Biso   1.000  O
  O11      1.0000 0.93910  0.41306  0.67510  Biso   1.000  O
  O12      1.0000 0.90694  0.33403  0.92793  Biso   1.000  O
  O13      1.0000 0.54781  0.12956  0.74460  Biso   1.000  O
  O14      1.0000 0.51668  0.12315  0.99180  Biso   1.000  O
  O15      1.0000 0.47646  0.37799  0.51342  Biso   1.000  O
  O16      1.0000 0.44628  0.37077  0.76028  Biso   1.000  O
  Hf9      1.0000 0.27250  0.52880  0.14647  Biso   1.000  Hf
  Hf10     1.0000 0.26684  0.72494  0.39949  Biso   1.000  Hf
  Hf11     1.0000 0.71608  0.77276  0.10407  Biso   1.000  Hf
  Hf12     1.0000 0.70822  0.97071  0.35735  Biso   1.000  Hf
  O17      1.0000 0.05387  0.66508  0.07662  Biso   1.000  O
  O18      1.0000 0.05103  0.58940  0.32739  Biso   1.000  O
  O19      1.0000 0.92943  0.91052  0.17637  Biso   1.000  O
  O20      1.0000 0.93127  0.83642  0.42693  Biso   1.000  O
  O21      1.0000 0.54823  0.62870  0.24233  Biso   1.000  O
  O22      1.0000 0.54122  0.62258  0.49225  Biso   1.000  O
  O23      1.0000 0.44407  0.87727  0.01053  Biso   1.000  O
  O24      1.0000 0.43512  0.86782  0.26102  Biso   1.000  O
  Hf13     1.0000 0.27803  0.52224  0.64809  Biso   1.000  Hf
  Hf14     1.0000 0.26869  0.72783  0.89765  Biso   1.000  Hf
  Hf15     1.0000 0.71959  0.77266  0.60578  Biso   1.000  Hf
  Hf16     1.0000 0.71442  0.97867  0.85582  Biso   1.000  Hf
  O25      1.0000 0.05515  0.66221  0.58103  Biso   1.000  O
  O26      1.0000 0.05985  0.58467  0.82868  Biso   1.000  O
  O27      1.0000 0.93060  0.91652  0.67568  Biso   1.000  O
  O28      1.0000 0.93065  0.83712  0.92331  Biso   1.000  O
  O29      1.0000 0.54557  0.62757  0.74193  Biso   1.000  O
  O30      1.0000 0.54717  0.62451  0.99085  Biso   1.000  O
  O31      1.0000 0.43778  0.87499  0.51302  Biso   1.000  O
  O32      1.0000 0.44515  0.87225  0.76201  Biso   1.000  O
  Al1      1.0000 0.96202  0.24963  0.26700  Biso   1.000  Al
