data_image0
_cell_length_a       9.94386
_cell_length_b       10.3484
_cell_length_c       9.9942
_cell_angle_alpha    90.3432
_cell_angle_beta     89.6772
_cell_angle_gamma    90.1651

_symmetry_space_group_name_H-M    "P 1"
_symmetry_int_tables_number       1

loop_
  _symmetry_equiv_pos_as_xyz
  'x, y, z'

loop_
  _atom_site_label
  _atom_site_occupancy
  _atom_site_fract_x
  _atom_site_fract_y
  _atom_site_fract_z
  _atom_site_thermal_displace_type
  _atom_site_B_iso_or_equiv
  _atom_site_type_symbol
  Al1      1.0000 0.12476  0.03081  0.10735  Biso   1.000  Al
  Hf1      1.0000 0.13440  0.22775  0.37150  Biso   1.000  Hf
  Hf2      1.0000 0.36458  0.26159  0.12479  Biso   1.000  Hf
  Hf3      1.0000 0.36694  0.48164  0.37590  Biso   1.000  Hf
  O1       1.0000 0.03441  0.17925  0.18874  Biso   1.000  O
  O2       1.0000 0.03637  0.06558  0.44903  Biso   1.000  O
  O3       1.0000 0.46443  0.43192  0.19374  Biso   1.000  O
  O4       1.0000 0.46523  0.31567  0.44524  Biso   1.000  O
  O5       1.0000 0.26060  0.10522  0.24301  Biso   1.000  O
  O6       1.0000 0.27158  0.13214  0.49771  Biso   1.000  O
  O7       1.0000 0.22897  0.38097  0.49876  Biso   1.000  O
  O8       1.0000 0.23047  0.36168  0.24822  Biso   1.000  O
  Hf4      1.0000 0.13528  0.01755  0.62817  Biso   1.000  Hf
  Hf5      1.0000 0.13240  0.23540  0.87581  Biso   1.000  Hf
  Hf6      1.0000 0.36531  0.26654  0.62547  Biso   1.000  Hf
  Hf7      1.0000 0.36576  0.48504  0.87602  Biso   1.000  Hf
  O9       1.0000 0.03529  0.18537  0.69531  Biso   1.000  O
  O10      1.0000 0.03362  0.06700  0.94457  Biso   1.000  O
  O11      1.0000 0.46353  0.43469  0.69459  Biso   1.000  O
  O12      1.0000 0.46168  0.31565  0.94315  Biso   1.000  O
  O13      1.0000 0.27140  0.11946  0.75053  Biso   1.000  O
  O14      1.0000 0.26245  0.13363  0.00048  Biso   1.000  O
  O15      1.0000 0.22933  0.38330  0.99898  Biso   1.000  O
  O16      1.0000 0.22864  0.36922  0.74942  Biso   1.000  O
  Hf8      1.0000 0.13500  0.51459  0.12562  Biso   1.000  Hf
  Hf9      1.0000 0.13687  0.73194  0.37862  Biso   1.000  Hf
  Hf10     1.0000 0.36523  0.76569  0.12778  Biso   1.000  Hf
  Hf11     1.0000 0.36177  0.98206  0.37256  Biso   1.000  Hf
  O17      1.0000 0.03696  0.68353  0.19570  Biso   1.000  O
  O18      1.0000 0.03624  0.56351  0.44620  Biso   1.000  O
  O19      1.0000 0.46951  0.93166  0.19646  Biso   1.000  O
  O20      1.0000 0.46855  0.81768  0.45123  Biso   1.000  O
  O21      1.0000 0.26970  0.60926  0.24979  Biso   1.000  O
  O22      1.0000 0.27326  0.63178  0.50122  Biso   1.000  O
  O23      1.0000 0.22946  0.88204  0.50575  Biso   1.000  O
  O24      1.0000 0.24482  0.85137  0.26257  Biso   1.000  O
  Hf12     1.0000 0.13530  0.51687  0.62660  Biso   1.000  Hf
  Hf13     1.0000 0.13415  0.73673  0.88023  Biso   1.000  Hf
  Hf14     1.0000 0.36654  0.76877  0.62926  Biso   1.000  Hf
  Hf15     1.0000 0.36000  0.98523  0.88309  Biso   1.000  Hf
  O25      1.0000 0.03700  0.68550  0.69553  Biso   1.000  O
  O26      1.0000 0.03491  0.56748  0.94606  Biso   1.000  O
  O27      1.0000 0.46317  0.93556  0.69941  Biso   1.000  O
  O28      1.0000 0.45986  0.81774  0.94436  Biso   1.000  O
  O29      1.0000 0.27033  0.61965  0.75187  Biso   1.000  O
  O30      1.0000 0.26939  0.63389  0.00077  Biso   1.000  O
  O31      1.0000 0.22177  0.89086  0.01427  Biso   1.000  O
  O32      1.0000 0.22828  0.87011  0.75624  Biso   1.000  O
  Hf16     1.0000 0.63426  0.01681  0.12512  Biso   1.000  Hf
  Hf17     1.0000 0.63462  0.23196  0.37627  Biso   1.000  Hf
  Hf18     1.0000 0.86531  0.26577  0.12416  Biso   1.000  Hf
  Hf19     1.0000 0.86618  0.48313  0.37602  Biso   1.000  Hf
  O33      1.0000 0.53386  0.18304  0.19697  Biso   1.000  O
  O34      1.0000 0.53558  0.06500  0.44330  Biso   1.000  O
  O35      1.0000 0.96545  0.43209  0.19519  Biso   1.000  O
  O36      1.0000 0.96366  0.31335  0.44090  Biso   1.000  O
  O37      1.0000 0.77136  0.11654  0.24744  Biso   1.000  O
  O38      1.0000 0.77158  0.13191  0.49725  Biso   1.000  O
  O39      1.0000 0.72989  0.38234  0.49952  Biso   1.000  O
  O40      1.0000 0.72926  0.36665  0.24914  Biso   1.000  O
  Hf20     1.0000 0.63185  0.01480  0.62308  Biso   1.000  Hf
  Hf21     1.0000 0.63250  0.23433  0.87397  Biso   1.000  Hf
  Hf22     1.0000 0.86592  0.26587  0.62394  Biso   1.000  Hf
  Hf23     1.0000 0.86492  0.48560  0.87526  Biso   1.000  Hf
  O41      1.0000 0.53636  0.18506  0.69228  Biso   1.000  O
  O42      1.0000 0.53214  0.06877  0.94769  Biso   1.000  O
  O43      1.0000 0.96360  0.43471  0.69347  Biso   1.000  O
  O44      1.0000 0.96260  0.31825  0.94384  Biso   1.000  O
  O45      1.0000 0.76886  0.11728  0.74727  Biso   1.000  O
  O46      1.0000 0.76856  0.13430  0.99714  Biso   1.000  O
  O47      1.0000 0.72817  0.38372  0.99877  Biso   1.000  O
  O48      1.0000 0.72915  0.36825  0.74878  Biso   1.000  O
  Hf24     1.0000 0.63442  0.51705  0.12715  Biso   1.000  Hf
  Hf25     1.0000 0.63601  0.73511  0.37558  Biso   1.000  Hf
  Hf26     1.0000 0.87183  0.76912  0.12340  Biso   1.000  Hf
  Hf27     1.0000 0.87192  0.98412  0.37165  Biso   1.000  Hf
  O49      1.0000 0.53624  0.68399  0.19714  Biso   1.000  O
  O50      1.0000 0.53740  0.56594  0.44383  Biso   1.000  O
  O51      1.0000 0.98249  0.93716  0.18981  Biso   1.000  O
  O52      1.0000 0.96544  0.81569  0.44307  Biso   1.000  O
  O53      1.0000 0.77286  0.61681  0.24930  Biso   1.000  O
  O54      1.0000 0.77059  0.63307  0.49967  Biso   1.000  O
  O55      1.0000 0.73336  0.88384  0.49699  Biso   1.000  O
  O56      1.0000 0.73718  0.86742  0.24703  Biso   1.000  O
  Hf28     1.0000 0.63410  0.51715  0.62565  Biso   1.000  Hf
  Hf29     1.0000 0.63289  0.73548  0.87653  Biso   1.000  Hf
  Hf30     1.0000 0.86731  0.76704  0.62517  Biso   1.000  Hf
  Hf31     1.0000 0.86515  0.98565  0.87370  Biso   1.000  Hf
  O57      1.0000 0.53553  0.68377  0.69621  Biso   1.000  O
  O58      1.0000 0.53538  0.56743  0.94619  Biso   1.000  O
  O59      1.0000 0.96409  0.93508  0.69362  Biso   1.000  O
  O60      1.0000 0.96038  0.81626  0.93999  Biso   1.000  O
  O61      1.0000 0.77012  0.61858  0.74980  Biso   1.000  O
  O62      1.0000 0.77007  0.63475  0.00015  Biso   1.000  O
  O63      1.0000 0.72842  0.88431  0.99798  Biso   1.000  O
  O64      1.0000 0.72831  0.86725  0.74748  Biso   1.000  O
