data_image0
_cell_length_a       10.0891
_cell_length_b       10.4559
_cell_length_c       10.0784
_cell_angle_alpha    94.7759
_cell_angle_beta     90.013
_cell_angle_gamma    89.8432

_symmetry_space_group_name_H-M    "P 1"
_symmetry_int_tables_number       1

loop_
  _symmetry_equiv_pos_as_xyz
  'x, y, z'

loop_
  _atom_site_label
  _atom_site_occupancy
  _atom_site_fract_x
  _atom_site_fract_y
  _atom_site_fract_z
  _atom_site_thermal_displace_type
  _atom_site_B_iso_or_equiv
  _atom_site_type_symbol
  Hf1      1.0000 0.13973  0.01644  0.11850  Biso   1.000  Hf
  Hf2      1.0000 0.10002  0.23449  0.39857  Biso   1.000  Hf
  Hf3      1.0000 0.38561  0.28010  0.13482  Biso   1.000  Hf
  Hf4      1.0000 0.40263  0.98882  0.38770  Biso   1.000  Hf
  O1       1.0000 0.00735  0.16770  0.02700  Biso   1.000  O
  O2       1.0000 0.03865  0.05780  0.30332  Biso   1.000  O
  O3       1.0000 0.97280  0.30563  0.26394  Biso   1.000  O
  O4       1.0000 0.97327  0.41831  0.06126  Biso   1.000  O
  O5       1.0000 0.20873  0.20704  0.20873  Biso   1.000  O
  O6       1.0000 0.23310  0.09768  0.96655  Biso   1.000  O
  O7       1.0000 0.21547  0.35028  0.99867  Biso   1.000  O
  O8       1.0000 0.29312  0.45287  0.21959  Biso   1.000  O
  Hf5      1.0000 0.14078  0.00652  0.60130  Biso   1.000  Hf
  Hf6      1.0000 0.14033  0.22205  0.84091  Biso   1.000  Hf
  Hf7      1.0000 0.36837  0.25964  0.59595  Biso   1.000  Hf
  Hf8      1.0000 0.37204  0.98388  0.86597  Biso   1.000  Hf
  O9       1.0000 0.02726  0.16883  0.56570  Biso   1.000  O
  O10      1.0000 0.03950  0.05687  0.77748  Biso   1.000  O
  O11      1.0000 0.96665  0.30964  0.79986  Biso   1.000  O
  O12      1.0000 0.98810  0.39828  0.50679  Biso   1.000  O
  O13      1.0000 0.28001  0.12250  0.71991  Biso   1.000  O
  O14      1.0000 0.25787  0.11576  0.46947  Biso   1.000  O
  O15      1.0000 0.24407  0.36476  0.47309  Biso   1.000  O
  O16      1.0000 0.22516  0.37225  0.72850  Biso   1.000  O
  Hf9      1.0000 0.14438  0.54703  0.12465  Biso   1.000  Hf
  Hf10     1.0000 0.09896  0.74153  0.39302  Biso   1.000  Hf
  Hf11     1.0000 0.36403  0.77763  0.12132  Biso   1.000  Hf
  Hf12     1.0000 0.40080  0.49472  0.39061  Biso   1.000  Hf
  O17      1.0000 0.01545  0.65686  0.01053  Biso   1.000  O
  O18      1.0000 0.03318  0.56355  0.30011  Biso   1.000  O
  O19      1.0000 0.95941  0.80741  0.27440  Biso   1.000  O
  O20      1.0000 0.97503  0.91867  0.05302  Biso   1.000  O
  O21      1.0000 0.21693  0.70746  0.22782  Biso   1.000  O
  O22      1.0000 0.27601  0.61523  0.98390  Biso   1.000  O
  O23      1.0000 0.23064  0.85879  0.99004  Biso   1.000  O
  O24      1.0000 0.29214  0.95407  0.21916  Biso   1.000  O
  Hf13     1.0000 0.13941  0.50946  0.59956  Biso   1.000  Hf
  Hf14     1.0000 0.14190  0.72799  0.85243  Biso   1.000  Hf
  Hf15     1.0000 0.36570  0.76277  0.60177  Biso   1.000  Hf
  Hf16     1.0000 0.36445  0.47626  0.85268  Biso   1.000  Hf
  O25      1.0000 0.02039  0.66331  0.55574  Biso   1.000  O
  O26      1.0000 0.04767  0.55714  0.77764  Biso   1.000  O
  O27      1.0000 0.96840  0.80688  0.79598  Biso   1.000  O
  O28      1.0000 0.98907  0.90015  0.51222  Biso   1.000  O
  O29      1.0000 0.27788  0.62197  0.72622  Biso   1.000  O
  O30      1.0000 0.25657  0.61787  0.47608  Biso   1.000  O
  O31      1.0000 0.24605  0.86657  0.47433  Biso   1.000  O
  O32      1.0000 0.22459  0.87409  0.72941  Biso   1.000  O
  Hf17     1.0000 0.63254  0.01843  0.09844  Biso   1.000  Hf
  Hf18     1.0000 0.64549  0.22537  0.34789  Biso   1.000  Hf
  Hf19     1.0000 0.82693  0.25410  0.10056  Biso   1.000  Hf
  Hf20     1.0000 0.86390  0.97376  0.35219  Biso   1.000  Hf
  O33      1.0000 0.47252  0.13021  0.00931  Biso   1.000  O
  O34      1.0000 0.53495  0.06551  0.26880  Biso   1.000  O
  O35      1.0000 0.46948  0.31360  0.31148  Biso   1.000  O
  O36      1.0000 0.48137  0.39869  0.01361  Biso   1.000  O
  O37      1.0000 0.78760  0.11098  0.22794  Biso   1.000  O
  O38      1.0000 0.75155  0.11059  0.96093  Biso   1.000  O
  O39      1.0000 0.73683  0.36819  0.96773  Biso   1.000  O
  O40      1.0000 0.73200  0.38155  0.23707  Biso   1.000  O
  Hf21     1.0000 0.64452  0.02905  0.61443  Biso   1.000  Hf
  Hf22     1.0000 0.59512  0.23234  0.88847  Biso   1.000  Hf
  Hf23     1.0000 0.85637  0.28015  0.62361  Biso   1.000  Hf
  Hf24     1.0000 0.89720  0.98450  0.88339  Biso   1.000  Hf
  O41      1.0000 0.51670  0.15108  0.50597  Biso   1.000  O
  O42      1.0000 0.53411  0.05475  0.78215  Biso   1.000  O
  O43      1.0000 0.45639  0.30675  0.77666  Biso   1.000  O
  O44      1.0000 0.47613  0.42126  0.55981  Biso   1.000  O
  O45      1.0000 0.70964  0.20250  0.71921  Biso   1.000  O
  O46      1.0000 0.77613  0.12046  0.48156  Biso   1.000  O
  O47      1.0000 0.73074  0.37040  0.48623  Biso   1.000  O
  O48      1.0000 0.79204  0.45498  0.72035  Biso   1.000  O
  Hf25     1.0000 0.63968  0.51088  0.09842  Biso   1.000  Hf
  Hf26     1.0000 0.64018  0.72739  0.35241  Biso   1.000  Hf
  Hf27     1.0000 0.85974  0.76058  0.09719  Biso   1.000  Hf
  Hf28     1.0000 0.86670  0.48020  0.35970  Biso   1.000  Hf
  O49      1.0000 0.52404  0.66208  0.05496  Biso   1.000  O
  O50      1.0000 0.54489  0.55792  0.27693  Biso   1.000  O
  O51      1.0000 0.47115  0.81106  0.29676  Biso   1.000  O
  O52      1.0000 0.48981  0.89401  0.01183  Biso   1.000  O
  O53      1.0000 0.77621  0.62454  0.22467  Biso   1.000  O
  O54      1.0000 0.75851  0.61483  0.97232  Biso   1.000  O
  O55      1.0000 0.74261  0.86529  0.97114  Biso   1.000  O
  O56      1.0000 0.72267  0.87307  0.22500  Biso   1.000  O
  Hf29     1.0000 0.64242  0.52839  0.61995  Biso   1.000  Hf
  Hf30     1.0000 0.59971  0.73852  0.88860  Biso   1.000  Hf
  Hf31     1.0000 0.85775  0.77710  0.62013  Biso   1.000  Hf
  Hf32     1.0000 0.90496  0.48844  0.88854  Biso   1.000  Hf
  O57      1.0000 0.51529  0.65388  0.51047  Biso   1.000  O
  O58      1.0000 0.53172  0.55740  0.79824  Biso   1.000  O
  O59      1.0000 0.45542  0.80799  0.77977  Biso   1.000  O
  O60      1.0000 0.48273  0.91441  0.55091  Biso   1.000  O
  O61      1.0000 0.70985  0.70163  0.71946  Biso   1.000  O
  O62      1.0000 0.77085  0.61926  0.48262  Biso   1.000  O
  O63      1.0000 0.73375  0.86817  0.48077  Biso   1.000  O
  O64      1.0000 0.78871  0.94897  0.71706  Biso   1.000  O
  Al1      1.0000 0.08999  0.29899  0.12128  Biso   1.000  Al
