data_image0
_cell_length_a       10.0867
_cell_length_b       5.06161
_cell_length_c       10.484
_cell_angle_alpha    89.6234
_cell_angle_beta     92.2317
_cell_angle_gamma    91.2023

_symmetry_space_group_name_H-M    "P 1"
_symmetry_int_tables_number       1

loop_
  _symmetry_equiv_pos_as_xyz
  'x, y, z'

loop_
  _atom_site_label
  _atom_site_occupancy
  _atom_site_fract_x
  _atom_site_fract_y
  _atom_site_fract_z
  _atom_site_thermal_displace_type
  _atom_site_B_iso_or_equiv
  _atom_site_type_symbol
  Hf1      1.0000 0.11986  0.10644  0.12297  Biso   1.000  Hf
  Hf2      1.0000 0.12835  0.53936  0.40349  Biso   1.000  Hf
  Hf3      1.0000 0.38257  0.49198  0.09837  Biso   1.000  Hf
  Hf4      1.0000 0.35366  0.03583  0.36487  Biso   1.000  Hf
  O1       1.0000 0.01563  0.28494  0.95543  Biso   1.000  O
  O2       1.0000 0.94347  0.12249  0.20409  Biso   1.000  O
  O3       1.0000 0.94651  0.63165  0.31357  Biso   1.000  O
  O4       1.0000 0.06281  0.81846  0.97237  Biso   1.000  O
  O5       1.0000 0.24121  0.32280  0.26811  Biso   1.000  O
  O6       1.0000 0.29280  0.13402  0.03509  Biso   1.000  O
  O7       1.0000 0.30192  0.64779  0.93560  Biso   1.000  O
  O8       1.0000 0.18285  0.84379  0.27504  Biso   1.000  O
  Hf5      1.0000 0.12809  0.02951  0.61534  Biso   1.000  Hf
  Hf6      1.0000 0.12626  0.53376  0.83759  Biso   1.000  Hf
  Hf7      1.0000 0.38027  0.51610  0.64079  Biso   1.000  Hf
  Hf8      1.0000 0.38339  0.99585  0.87044  Biso   1.000  Hf
  O9       1.0000 0.02832  0.19463  0.45034  Biso   1.000  O
  O10      1.0000 0.02295  0.31548  0.69657  Biso   1.000  O
  O11      1.0000 0.99316  0.80279  0.75573  Biso   1.000  O
  O12      1.0000 0.00995  0.73268  0.53116  Biso   1.000  O
  O13      1.0000 0.26072  0.25107  0.76881  Biso   1.000  O
  O14      1.0000 0.26268  0.28245  0.51905  Biso   1.000  O
  O15      1.0000 0.26922  0.78155  0.49347  Biso   1.000  O
  O16      1.0000 0.24838  0.76578  0.71937  Biso   1.000  O
  Hf9      1.0000 0.61426  0.02408  0.13505  Biso   1.000  Hf
  Hf10     1.0000 0.59916  0.51645  0.37051  Biso   1.000  Hf
  Hf11     1.0000 0.84832  0.47838  0.15760  Biso   1.000  Hf
  Hf12     1.0000 0.87079  0.98224  0.38074  Biso   1.000  Hf
  O17      1.0000 0.50880  0.26149  0.97376  Biso   1.000  O
  O18      1.0000 0.49016  0.25624  0.22690  Biso   1.000  O
  O19      1.0000 0.45577  0.74558  0.26886  Biso   1.000  O
  O20      1.0000 0.53087  0.74373  0.02273  Biso   1.000  O
  O21      1.0000 0.73157  0.24627  0.28901  Biso   1.000  O
  O22      1.0000 0.74691  0.21822  0.02788  Biso   1.000  O
  O23      1.0000 0.79588  0.70651  0.98745  Biso   1.000  O
  O24      1.0000 0.71368  0.73702  0.23371  Biso   1.000  O
  Hf13     1.0000 0.62423  0.99402  0.61710  Biso   1.000  Hf
  Hf14     1.0000 0.64164  0.50626  0.88006  Biso   1.000  Hf
  Hf15     1.0000 0.86206  0.52897  0.63304  Biso   1.000  Hf
  Hf16     1.0000 0.88000  0.99920  0.88289  Biso   1.000  Hf
  O25      1.0000 0.51627  0.19478  0.46653  Biso   1.000  O
  O26      1.0000 0.51557  0.24550  0.72452  Biso   1.000  O
  O27      1.0000 0.50505  0.74394  0.77397  Biso   1.000  O
  O28      1.0000 0.51576  0.69348  0.52902  Biso   1.000  O
  O29      1.0000 0.77717  0.28866  0.78557  Biso   1.000  O
  O30      1.0000 0.77980  0.19965  0.54161  Biso   1.000  O
  O31      1.0000 0.74908  0.71597  0.48343  Biso   1.000  O
  O32      1.0000 0.74686  0.77420  0.74120  Biso   1.000  O
  As1      1.0000 0.11031  0.60848  0.11365  Biso   1.000  As
