data_image0
_cell_length_a       10.0499
_cell_length_b       5.21794
_cell_length_c       10.0968
_cell_angle_alpha    89.9013
_cell_angle_beta     90.1244
_cell_angle_gamma    90.351

_symmetry_space_group_name_H-M    "P 1"
_symmetry_int_tables_number       1

loop_
  _symmetry_equiv_pos_as_xyz
  'x, y, z'

loop_
  _atom_site_label
  _atom_site_occupancy
  _atom_site_fract_x
  _atom_site_fract_y
  _atom_site_fract_z
  _atom_site_thermal_displace_type
  _atom_site_B_iso_or_equiv
  _atom_site_type_symbol
  Ba1      1.0000 0.11301  0.99581  0.12861  Biso   1.000  Ba
  Hf1      1.0000 0.13513  0.03535  0.62671  Biso   1.000  Hf
  Hf2      1.0000 0.63699  0.03172  0.12501  Biso   1.000  Hf
  Hf3      1.0000 0.63191  0.03153  0.62811  Biso   1.000  Hf
  Hf4      1.0000 0.13533  0.46887  0.38004  Biso   1.000  Hf
  Hf5      1.0000 0.13789  0.46732  0.87185  Biso   1.000  Hf
  Hf6      1.0000 0.63044  0.46343  0.38025  Biso   1.000  Hf
  Hf7      1.0000 0.63545  0.46298  0.87378  Biso   1.000  Hf
  Hf8      1.0000 0.36991  0.51542  0.12620  Biso   1.000  Hf
  Hf9      1.0000 0.36549  0.53315  0.62677  Biso   1.000  Hf
  Hf10     1.0000 0.85784  0.52251  0.12450  Biso   1.000  Hf
  Hf11     1.0000 0.86865  0.53500  0.62330  Biso   1.000  Hf
  Hf12     1.0000 0.36688  0.96337  0.37631  Biso   1.000  Hf
  Hf13     1.0000 0.36908  0.96612  0.87612  Biso   1.000  Hf
  Hf14     1.0000 0.85908  0.97538  0.38719  Biso   1.000  Hf
  Hf15     1.0000 0.86400  0.96076  0.86984  Biso   1.000  Hf
  O1       1.0000 0.03151  0.43703  0.20261  Biso   1.000  O
  O2       1.0000 0.04283  0.38247  0.67847  Biso   1.000  O
  O3       1.0000 0.54263  0.36731  0.19546  Biso   1.000  O
  O4       1.0000 0.53484  0.36420  0.69565  Biso   1.000  O
  O5       1.0000 0.03662  0.12729  0.43605  Biso   1.000  O
  O6       1.0000 0.03059  0.14899  0.90542  Biso   1.000  O
  O7       1.0000 0.53748  0.13119  0.44739  Biso   1.000  O
  O8       1.0000 0.53782  0.13270  0.94721  Biso   1.000  O
  O9       1.0000 0.47244  0.86322  0.19740  Biso   1.000  O
  O10      1.0000 0.46567  0.86475  0.69729  Biso   1.000  O
  O11      1.0000 0.90592  0.89248  0.18941  Biso   1.000  O
  O12      1.0000 0.96035  0.87301  0.68666  Biso   1.000  O
  O13      1.0000 0.46684  0.63257  0.45195  Biso   1.000  O
  O14      1.0000 0.47333  0.63481  0.94453  Biso   1.000  O
  O15      1.0000 0.96205  0.63976  0.44252  Biso   1.000  O
  O16      1.0000 0.97141  0.64680  0.95140  Biso   1.000  O
  O17      1.0000 0.28324  0.23639  0.25617  Biso   1.000  O
  O18      1.0000 0.27280  0.23745  0.74853  Biso   1.000  O
  O19      1.0000 0.76640  0.24562  0.25596  Biso   1.000  O
  O20      1.0000 0.77008  0.23366  0.74807  Biso   1.000  O
  O21      1.0000 0.27099  0.26199  0.50240  Biso   1.000  O
  O22      1.0000 0.27493  0.26099  0.99285  Biso   1.000  O
  O23      1.0000 0.76897  0.26630  0.50245  Biso   1.000  O
  O24      1.0000 0.77330  0.25709  0.99763  Biso   1.000  O
  O25      1.0000 0.22905  0.76758  0.50219  Biso   1.000  O
  O26      1.0000 0.24821  0.73696  0.99314  Biso   1.000  O
  O27      1.0000 0.72711  0.76320  0.50234  Biso   1.000  O
  O28      1.0000 0.72788  0.75517  0.99822  Biso   1.000  O
  O29      1.0000 0.25428  0.70055  0.26269  Biso   1.000  O
  O30      1.0000 0.22964  0.74190  0.74781  Biso   1.000  O
  O31      1.0000 0.72281  0.74129  0.25148  Biso   1.000  O
  O32      1.0000 0.73108  0.73082  0.74857  Biso   1.000  O
