data_image0
_cell_length_a       5.05147
_cell_length_b       10.3082
_cell_length_c       10.1115
_cell_angle_alpha    90.002
_cell_angle_beta     89.9998
_cell_angle_gamma    89.9995

_symmetry_space_group_name_H-M    "P 1"
_symmetry_int_tables_number       1

loop_
  _symmetry_equiv_pos_as_xyz
  'x, y, z'

loop_
  _atom_site_label
  _atom_site_occupancy
  _atom_site_fract_x
  _atom_site_fract_y
  _atom_site_fract_z
  _atom_site_thermal_displace_type
  _atom_site_B_iso_or_equiv
  _atom_site_type_symbol
  Ba1      1.0000 0.25417  0.00022  0.12557  Biso   1.000  Ba
  Hf1      1.0000 0.25407  0.00020  0.62557  Biso   1.000  Hf
  Hf2      1.0000 0.25417  0.50021  0.12556  Biso   1.000  Hf
  Hf3      1.0000 0.25418  0.50022  0.62556  Biso   1.000  Hf
  Hf4      1.0000 0.25199  0.25491  0.37809  Biso   1.000  Hf
  Hf5      1.0000 0.25627  0.25492  0.87307  Biso   1.000  Hf
  Hf6      1.0000 0.25625  0.74550  0.37805  Biso   1.000  Hf
  Hf7      1.0000 0.25202  0.74550  0.87306  Biso   1.000  Hf
  Hf8      1.0000 0.75416  0.25879  0.12555  Biso   1.000  Hf
  Hf9      1.0000 0.75408  0.24668  0.62560  Biso   1.000  Hf
  Hf10     1.0000 0.75416  0.74165  0.12557  Biso   1.000  Hf
  Hf11     1.0000 0.75410  0.75376  0.62554  Biso   1.000  Hf
  Hf12     1.0000 0.75414  0.00026  0.37873  Biso   1.000  Hf
  Hf13     1.0000 0.75414  0.00018  0.87240  Biso   1.000  Hf
  Hf14     1.0000 0.75420  0.50020  0.37845  Biso   1.000  Hf
  Hf15     1.0000 0.75417  0.50022  0.87267  Biso   1.000  Hf
  O1       1.0000 0.00003  0.15627  0.99532  Biso   1.000  O
  O2       1.0000 0.02741  0.15145  0.51159  Biso   1.000  O
  O3       1.0000 0.02992  0.64336  0.00776  Biso   1.000  O
  O4       1.0000 0.00269  0.64765  0.50575  Biso   1.000  O
  O5       1.0000 0.97328  0.12252  0.26835  Biso   1.000  O
  O6       1.0000 0.99036  0.10003  0.74994  Biso   1.000  O
  O7       1.0000 0.98500  0.60068  0.25159  Biso   1.000  O
  O8       1.0000 0.00929  0.60120  0.75558  Biso   1.000  O
  O9       1.0000 0.03002  0.35705  0.24334  Biso   1.000  O
  O10      1.0000 0.00275  0.35277  0.74535  Biso   1.000  O
  O11      1.0000 0.99996  0.84416  0.25582  Biso   1.000  O
  O12      1.0000 0.02747  0.84896  0.73954  Biso   1.000  O
  O13      1.0000 0.98502  0.39975  0.99951  Biso   1.000  O
  O14      1.0000 0.00937  0.39923  0.49551  Biso   1.000  O
  O15      1.0000 0.97330  0.87792  0.98279  Biso   1.000  O
  O16      1.0000 0.99030  0.90039  0.50121  Biso   1.000  O
  O17      1.0000 0.50830  0.15630  0.25578  Biso   1.000  O
  O18      1.0000 0.48058  0.15146  0.73946  Biso   1.000  O
  O19      1.0000 0.47829  0.64338  0.24332  Biso   1.000  O
  O20      1.0000 0.50556  0.64765  0.74535  Biso   1.000  O
  O21      1.0000 0.53503  0.12252  0.98273  Biso   1.000  O
  O22      1.0000 0.51759  0.10003  0.50112  Biso   1.000  O
  O23      1.0000 0.52324  0.60068  0.99950  Biso   1.000  O
  O24      1.0000 0.49900  0.60119  0.49550  Biso   1.000  O
  O25      1.0000 0.47833  0.35707  0.00776  Biso   1.000  O
  O26      1.0000 0.50564  0.35277  0.50574  Biso   1.000  O
  O27      1.0000 0.50830  0.84414  0.99534  Biso   1.000  O
  O28      1.0000 0.48052  0.84895  0.51168  Biso   1.000  O
  O29      1.0000 0.52335  0.39977  0.25157  Biso   1.000  O
  O30      1.0000 0.49907  0.39921  0.75557  Biso   1.000  O
  O31      1.0000 0.53497  0.87792  0.26841  Biso   1.000  O
  O32      1.0000 0.51767  0.90039  0.74999  Biso   1.000  O
