data_image0
_cell_length_a       5.03009
_cell_length_b       10.4352
_cell_length_c       10.1253
_cell_angle_alpha    90.1206
_cell_angle_beta     89.9242
_cell_angle_gamma    89.9059

_symmetry_space_group_name_H-M    "P 1"
_symmetry_int_tables_number       1

loop_
  _symmetry_equiv_pos_as_xyz
  'x, y, z'

loop_
  _atom_site_label
  _atom_site_occupancy
  _atom_site_fract_x
  _atom_site_fract_y
  _atom_site_fract_z
  _atom_site_thermal_displace_type
  _atom_site_B_iso_or_equiv
  _atom_site_type_symbol
  Ba1      1.0000 0.23577  0.99091  0.12783  Biso   1.000  Ba
  Hf1      1.0000 0.26278  0.02011  0.62936  Biso   1.000  Hf
  Hf2      1.0000 0.26327  0.51137  0.13091  Biso   1.000  Hf
  Hf3      1.0000 0.26969  0.51560  0.62764  Biso   1.000  Hf
  Hf4      1.0000 0.26621  0.23582  0.37665  Biso   1.000  Hf
  Hf5      1.0000 0.27318  0.23299  0.87568  Biso   1.000  Hf
  Hf6      1.0000 0.26427  0.72664  0.38290  Biso   1.000  Hf
  Hf7      1.0000 0.27719  0.73312  0.86909  Biso   1.000  Hf
  Hf8      1.0000 0.72311  0.26405  0.13121  Biso   1.000  Hf
  Hf9      1.0000 0.73643  0.27003  0.62614  Biso   1.000  Hf
  Hf10     1.0000 0.76689  0.73235  0.08981  Biso   1.000  Hf
  Hf11     1.0000 0.73550  0.76801  0.62172  Biso   1.000  Hf
  Hf12     1.0000 0.72718  0.48369  0.37700  Biso   1.000  Hf
  Hf13     1.0000 0.72761  0.47626  0.87829  Biso   1.000  Hf
  Hf14     1.0000 0.72638  0.99416  0.39261  Biso   1.000  Hf
  Hf15     1.0000 0.72935  0.98679  0.86923  Biso   1.000  Hf
  O1       1.0000 0.05711  0.20091  0.20721  Biso   1.000  O
  O2       1.0000 0.08051  0.19157  0.68336  Biso   1.000  O
  O3       1.0000 0.09339  0.70075  0.20162  Biso   1.000  O
  O4       1.0000 0.06815  0.68375  0.69523  Biso   1.000  O
  O5       1.0000 0.07466  0.06642  0.44378  Biso   1.000  O
  O6       1.0000 0.07057  0.07310  0.90753  Biso   1.000  O
  O7       1.0000 0.07003  0.56986  0.44871  Biso   1.000  O
  O8       1.0000 0.01360  0.59020  0.96964  Biso   1.000  O
  O9       1.0000 0.91801  0.44375  0.19855  Biso   1.000  O
  O10      1.0000 0.93640  0.43593  0.70283  Biso   1.000  O
  O11      1.0000 0.78855  0.91989  0.19690  Biso   1.000  O
  O12      1.0000 0.91573  0.93674  0.68571  Biso   1.000  O
  O13      1.0000 0.92747  0.32218  0.45000  Biso   1.000  O
  O14      1.0000 0.93892  0.32413  0.95025  Biso   1.000  O
  O15      1.0000 0.93669  0.82019  0.44838  Biso   1.000  O
  O16      1.0000 0.97719  0.83329  0.94808  Biso   1.000  O
  O17      1.0000 0.55795  0.12852  0.26716  Biso   1.000  O
  O18      1.0000 0.54256  0.12120  0.74849  Biso   1.000  O
  O19      1.0000 0.52930  0.60863  0.24953  Biso   1.000  O
  O20      1.0000 0.54223  0.61701  0.74809  Biso   1.000  O
  O21      1.0000 0.53618  0.13376  0.50861  Biso   1.000  O
  O22      1.0000 0.56056  0.13495  0.99476  Biso   1.000  O
  O23      1.0000 0.54354  0.63210  0.50035  Biso   1.000  O
  O24      1.0000 0.50635  0.61562  0.99347  Biso   1.000  O
  O25      1.0000 0.45841  0.38497  0.50185  Biso   1.000  O
  O26      1.0000 0.45214  0.38052  0.00289  Biso   1.000  O
  O27      1.0000 0.45034  0.88405  0.49503  Biso   1.000  O
  O28      1.0000 0.51003  0.85468  0.98245  Biso   1.000  O
  O29      1.0000 0.45468  0.36925  0.25310  Biso   1.000  O
  O30      1.0000 0.46306  0.36981  0.75103  Biso   1.000  O
  O31      1.0000 0.57426  0.84086  0.24732  Biso   1.000  O
  O32      1.0000 0.45357  0.86964  0.74190  Biso   1.000  O
