data_image0
_cell_length_a       10.1493
_cell_length_b       10.264
_cell_length_c       10.5014
_cell_angle_alpha    90.1224
_cell_angle_beta     79.7575
_cell_angle_gamma    90.0288

_symmetry_space_group_name_H-M    "P 1"
_symmetry_int_tables_number       1

loop_
  _symmetry_equiv_pos_as_xyz
  'x, y, z'

loop_
  _atom_site_label
  _atom_site_occupancy
  _atom_site_fract_x
  _atom_site_fract_y
  _atom_site_fract_z
  _atom_site_thermal_displace_type
  _atom_site_B_iso_or_equiv
  _atom_site_type_symbol
  Hf1      1.0000 0.13402  0.02134  0.14203  Biso   1.000  Hf
  Hf2      1.0000 0.14574  0.23261  0.38853  Biso   1.000  Hf
  Hf3      1.0000 0.35630  0.27053  0.11228  Biso   1.000  Hf
  Hf4      1.0000 0.35661  0.46840  0.34610  Biso   1.000  Hf
  O1       1.0000 0.03084  0.16788  0.07766  Biso   1.000  O
  O2       1.0000 0.03402  0.08344  0.32679  Biso   1.000  O
  O3       1.0000 0.46258  0.42407  0.16495  Biso   1.000  O
  O4       1.0000 0.47494  0.33166  0.42870  Biso   1.000  O
  O5       1.0000 0.27075  0.11482  0.23382  Biso   1.000  O
  O6       1.0000 0.29854  0.13250  0.47441  Biso   1.000  O
  O7       1.0000 0.22157  0.37938  0.00784  Biso   1.000  O
  O8       1.0000 0.20091  0.37849  0.25172  Biso   1.000  O
  Hf5      1.0000 0.13612  0.02116  0.64752  Biso   1.000  Hf
  Hf6      1.0000 0.13813  0.22990  0.89680  Biso   1.000  Hf
  Hf7      1.0000 0.36286  0.27391  0.61291  Biso   1.000  Hf
  Hf8      1.0000 0.36156  0.47838  0.85749  Biso   1.000  Hf
  O9       1.0000 0.04428  0.16804  0.57481  Biso   1.000  O
  O10      1.0000 0.03395  0.08319  0.82833  Biso   1.000  O
  O11      1.0000 0.46810  0.41691  0.67538  Biso   1.000  O
  O12      1.0000 0.46425  0.33359  0.92413  Biso   1.000  O
  O13      1.0000 0.27571  0.12829  0.73787  Biso   1.000  O
  O14      1.0000 0.27316  0.12163  0.98792  Biso   1.000  O
  O15      1.0000 0.22709  0.37732  0.51285  Biso   1.000  O
  O16      1.0000 0.22483  0.37244  0.76167  Biso   1.000  O
  Hf9      1.0000 0.13635  0.52332  0.14167  Biso   1.000  Hf
  Hf10     1.0000 0.13822  0.72375  0.39570  Biso   1.000  Hf
  Hf11     1.0000 0.35983  0.76963  0.10352  Biso   1.000  Hf
  Hf12     1.0000 0.35580  0.96818  0.35011  Biso   1.000  Hf
  O17      1.0000 0.03140  0.67067  0.07661  Biso   1.000  O
  O18      1.0000 0.03115  0.58639  0.32584  Biso   1.000  O
  O19      1.0000 0.46704  0.91383  0.17454  Biso   1.000  O
  O20      1.0000 0.46626  0.83499  0.42251  Biso   1.000  O
  O21      1.0000 0.27509  0.62657  0.23895  Biso   1.000  O
  O22      1.0000 0.27499  0.62063  0.48933  Biso   1.000  O
  O23      1.0000 0.22340  0.87814  0.00902  Biso   1.000  O
  O24      1.0000 0.22142  0.86551  0.25865  Biso   1.000  O
  Hf13     1.0000 0.14124  0.52254  0.64545  Biso   1.000  Hf
  Hf14     1.0000 0.13671  0.72954  0.89555  Biso   1.000  Hf
  Hf15     1.0000 0.36091  0.77086  0.60403  Biso   1.000  Hf
  Hf16     1.0000 0.36072  0.97800  0.85450  Biso   1.000  Hf
  O25      1.0000 0.03332  0.66551  0.57881  Biso   1.000  O
  O26      1.0000 0.03462  0.58324  0.82848  Biso   1.000  O
  O27      1.0000 0.46577  0.91549  0.67288  Biso   1.000  O
  O28      1.0000 0.46547  0.83445  0.92294  Biso   1.000  O
  O29      1.0000 0.27696  0.62906  0.74019  Biso   1.000  O
  O30      1.0000 0.27548  0.62302  0.98938  Biso   1.000  O
  O31      1.0000 0.22291  0.88277  0.50890  Biso   1.000  O
  O32      1.0000 0.22315  0.87153  0.75917  Biso   1.000  O
  Hf17     1.0000 0.63810  0.02364  0.14589  Biso   1.000  Hf
  Hf18     1.0000 0.65322  0.22920  0.40276  Biso   1.000  Hf
  Hf19     1.0000 0.85881  0.27310  0.10480  Biso   1.000  Hf
  Hf20     1.0000 0.86239  0.47898  0.35374  Biso   1.000  Hf
  O33      1.0000 0.53197  0.16611  0.07864  Biso   1.000  O
  O34      1.0000 0.51927  0.10555  0.32290  Biso   1.000  O
  O35      1.0000 0.95898  0.42221  0.16813  Biso   1.000  O
  O36      1.0000 0.96615  0.33506  0.42213  Biso   1.000  O
  O37      1.0000 0.77281  0.12752  0.24381  Biso   1.000  O
  O38      1.0000 0.78202  0.11890  0.49329  Biso   1.000  O
  O39      1.0000 0.72211  0.37933  0.01174  Biso   1.000  O
  O40      1.0000 0.72245  0.37067  0.26281  Biso   1.000  O
  Hf21     1.0000 0.63959  0.02030  0.64824  Biso   1.000  Hf
  Hf22     1.0000 0.63605  0.23009  0.89761  Biso   1.000  Hf
  Hf23     1.0000 0.86785  0.27165  0.60544  Biso   1.000  Hf
  Hf24     1.0000 0.86108  0.47880  0.85542  Biso   1.000  Hf
  O41      1.0000 0.53766  0.16523  0.57938  Biso   1.000  O
  O42      1.0000 0.53395  0.08325  0.82902  Biso   1.000  O
  O43      1.0000 0.96834  0.41634  0.67339  Biso   1.000  O
  O44      1.0000 0.96357  0.33273  0.92200  Biso   1.000  O
  O45      1.0000 0.77734  0.12946  0.74141  Biso   1.000  O
  O46      1.0000 0.77415  0.12205  0.99228  Biso   1.000  O
  O47      1.0000 0.72698  0.37726  0.51328  Biso   1.000  O
  O48      1.0000 0.72535  0.37198  0.76098  Biso   1.000  O
  Hf25     1.0000 0.63644  0.52275  0.14788  Biso   1.000  Hf
  Hf26     1.0000 0.63721  0.72574  0.39617  Biso   1.000  Hf
  Hf27     1.0000 0.85758  0.77195  0.10431  Biso   1.000  Hf
  Hf28     1.0000 0.86385  0.97584  0.35497  Biso   1.000  Hf
  O49      1.0000 0.53488  0.66934  0.07912  Biso   1.000  O
  O50      1.0000 0.53274  0.57975  0.33041  Biso   1.000  O
  O51      1.0000 0.96184  0.91568  0.17248  Biso   1.000  O
  O52      1.0000 0.96634  0.83245  0.42343  Biso   1.000  O
  O53      1.0000 0.77454  0.63088  0.24123  Biso   1.000  O
  O54      1.0000 0.77553  0.62057  0.49100  Biso   1.000  O
  O55      1.0000 0.72181  0.88111  0.01064  Biso   1.000  O
  O56      1.0000 0.71921  0.87364  0.26232  Biso   1.000  O
  Hf29     1.0000 0.64030  0.52267  0.64790  Biso   1.000  Hf
  Hf30     1.0000 0.63833  0.72910  0.89702  Biso   1.000  Hf
  Hf31     1.0000 0.86099  0.77136  0.60440  Biso   1.000  Hf
  Hf32     1.0000 0.85945  0.97979  0.85536  Biso   1.000  Hf
  O57      1.0000 0.53377  0.66640  0.57955  Biso   1.000  O
  O58      1.0000 0.53496  0.58428  0.82958  Biso   1.000  O
  O59      1.0000 0.96519  0.91755  0.67243  Biso   1.000  O
  O60      1.0000 0.96346  0.83447  0.92104  Biso   1.000  O
  O61      1.0000 0.77692  0.62917  0.74083  Biso   1.000  O
  O62      1.0000 0.77514  0.62204  0.99063  Biso   1.000  O
  O63      1.0000 0.72356  0.87772  0.51112  Biso   1.000  O
  O64      1.0000 0.72409  0.87143  0.76106  Biso   1.000  O
  Be1      1.0000 0.40794  0.21735  0.36175  Biso   1.000  Be
