data_image0
_cell_length_a       10.0588
_cell_length_b       10.6231
_cell_length_c       5.1109
_cell_angle_alpha    87.9663
_cell_angle_beta     92.4167
_cell_angle_gamma    90.7473

_symmetry_space_group_name_H-M    "P 1"
_symmetry_int_tables_number       1

loop_
  _symmetry_equiv_pos_as_xyz
  'x, y, z'

loop_
  _atom_site_label
  _atom_site_occupancy
  _atom_site_fract_x
  _atom_site_fract_y
  _atom_site_fract_z
  _atom_site_thermal_displace_type
  _atom_site_B_iso_or_equiv
  _atom_site_type_symbol
  Hf1      1.0000 0.11107  0.97302  0.21996  Biso   1.000  Hf
  Hf2      1.0000 0.14127  0.19408  0.62371  Biso   1.000  Hf
  Hf3      1.0000 0.37401  0.26339  0.21446  Biso   1.000  Hf
  Hf4      1.0000 0.38077  0.47724  0.72136  Biso   1.000  Hf
  O1       1.0000 0.00624  0.13135  0.32976  Biso   1.000  O
  O2       1.0000 0.04132  0.05993  0.86201  Biso   1.000  O
  O3       1.0000 0.47221  0.42364  0.39218  Biso   1.000  O
  O4       1.0000 0.48555  0.32079  0.90886  Biso   1.000  O
  O5       1.0000 0.26465  0.08969  0.40170  Biso   1.000  O
  O6       1.0000 0.30562  0.14722  0.87997  Biso   1.000  O
  O7       1.0000 0.26947  0.43253  0.04267  Biso   1.000  O
  O8       1.0000 0.23827  0.35783  0.52460  Biso   1.000  O
  Hf5      1.0000 0.12840  0.53813  0.27575  Biso   1.000  Hf
  Hf6      1.0000 0.12892  0.74784  0.75727  Biso   1.000  Hf
  Hf7      1.0000 0.37355  0.77152  0.25289  Biso   1.000  Hf
  Hf8      1.0000 0.37636  0.98911  0.72516  Biso   1.000  Hf
  O9       1.0000 0.02802  0.68285  0.42849  Biso   1.000  O
  O10      1.0000 0.02919  0.57174  0.90161  Biso   1.000  O
  O11      1.0000 0.47774  0.92652  0.40203  Biso   1.000  O
  O12      1.0000 0.47093  0.81949  0.90674  Biso   1.000  O
  O13      1.0000 0.26530  0.61580  0.55083  Biso   1.000  O
  O14      1.0000 0.23755  0.66903  0.05768  Biso   1.000  O
  O15      1.0000 0.24472  0.90018  0.97432  Biso   1.000  O
  O16      1.0000 0.23655  0.85609  0.48576  Biso   1.000  O
  Hf9      1.0000 0.63731  0.01693  0.26420  Biso   1.000  Hf
  Hf10     1.0000 0.63758  0.22953  0.77252  Biso   1.000  Hf
  Hf11     1.0000 0.84870  0.27325  0.31713  Biso   1.000  Hf
  Hf12     1.0000 0.87181  0.48276  0.74275  Biso   1.000  Hf
  O17      1.0000 0.52880  0.17383  0.41339  Biso   1.000  O
  O18      1.0000 0.54528  0.06268  0.90698  Biso   1.000  O
  O19      1.0000 0.93514  0.46909  0.37051  Biso   1.000  O
  O20      1.0000 0.95856  0.29668  0.67265  Biso   1.000  O
  O21      1.0000 0.76433  0.11308  0.53497  Biso   1.000  O
  O22      1.0000 0.77337  0.14061  0.03675  Biso   1.000  O
  O23      1.0000 0.74659  0.38396  0.01469  Biso   1.000  O
  O24      1.0000 0.71335  0.36968  0.51905  Biso   1.000  O
  Hf13     1.0000 0.63642  0.51577  0.25699  Biso   1.000  Hf
  Hf14     1.0000 0.62705  0.73248  0.76537  Biso   1.000  Hf
  Hf15     1.0000 0.85635  0.76211  0.29011  Biso   1.000  Hf
  Hf16     1.0000 0.86369  0.98106  0.77374  Biso   1.000  Hf
  O25      1.0000 0.52917  0.67221  0.41493  Biso   1.000  O
  O26      1.0000 0.52878  0.57096  0.91590  Biso   1.000  O
  O27      1.0000 0.97382  0.90483  0.48180  Biso   1.000  O
  O28      1.0000 0.98720  0.83278  0.99432  Biso   1.000  O
  O29      1.0000 0.76058  0.61841  0.53328  Biso   1.000  O
  O30      1.0000 0.76174  0.64331  0.02612  Biso   1.000  O
  O31      1.0000 0.73984  0.88766  0.03210  Biso   1.000  O
  O32      1.0000 0.73198  0.86510  0.52879  Biso   1.000  O
  Bi1      1.0000 0.09018  0.29340  0.07464  Biso   1.000  Bi
