data_image0
_cell_length_a       10.3592
_cell_length_b       5.20367
_cell_length_c       10.7139
_cell_angle_alpha    93.1471
_cell_angle_beta     77.618
_cell_angle_gamma    91.4362

_symmetry_space_group_name_H-M    "P 1"
_symmetry_int_tables_number       1

loop_
  _symmetry_equiv_pos_as_xyz
  'x, y, z'

loop_
  _atom_site_label
  _atom_site_occupancy
  _atom_site_fract_x
  _atom_site_fract_y
  _atom_site_fract_z
  _atom_site_thermal_displace_type
  _atom_site_B_iso_or_equiv
  _atom_site_type_symbol
  Hf1      1.0000 0.12334  0.08310  0.14320  Biso   1.000  Hf
  Hf2      1.0000 0.13502  0.43561  0.40523  Biso   1.000  Hf
  Hf3      1.0000 0.33435  0.62489  0.08663  Biso   1.000  Hf
  Hf4      1.0000 0.37738  0.91345  0.36460  Biso   1.000  Hf
  O1       1.0000 0.01527  0.31524  0.05885  Biso   1.000  O
  O2       1.0000 0.03477  0.13756  0.33987  Biso   1.000  O
  O3       1.0000 0.49229  0.83589  0.18008  Biso   1.000  O
  O4       1.0000 0.48165  0.62638  0.43515  Biso   1.000  O
  O5       1.0000 0.19181  0.42544  0.21158  Biso   1.000  O
  O6       1.0000 0.27361  0.21716  0.48636  Biso   1.000  O
  O7       1.0000 0.20649  0.80105  0.99703  Biso   1.000  O
  O8       1.0000 0.25812  0.90891  0.23149  Biso   1.000  O
  Hf5      1.0000 0.13526  0.03158  0.64265  Biso   1.000  Hf
  Hf6      1.0000 0.12874  0.46660  0.88796  Biso   1.000  Hf
  Hf7      1.0000 0.36617  0.52871  0.60785  Biso   1.000  Hf
  Hf8      1.0000 0.35160  0.98463  0.84702  Biso   1.000  Hf
  O9       1.0000 0.02906  0.30715  0.58152  Biso   1.000  O
  O10      1.0000 0.02572  0.17444  0.82030  Biso   1.000  O
  O11      1.0000 0.46267  0.83975  0.66870  Biso   1.000  O
  O12      1.0000 0.45992  0.72505  0.91519  Biso   1.000  O
  O13      1.0000 0.26843  0.25278  0.73206  Biso   1.000  O
  O14      1.0000 0.26097  0.28614  0.97516  Biso   1.000  O
  O15      1.0000 0.23127  0.72961  0.50657  Biso   1.000  O
  O16      1.0000 0.22195  0.74091  0.75320  Biso   1.000  O
  Hf9      1.0000 0.66984  0.00425  0.17088  Biso   1.000  Hf
  Hf10     1.0000 0.65891  0.42853  0.41406  Biso   1.000  Hf
  Hf11     1.0000 0.85780  0.52990  0.10461  Biso   1.000  Hf
  Hf12     1.0000 0.87109  0.92747  0.36635  Biso   1.000  Hf
  O17      1.0000 0.48290  0.36123  0.04694  Biso   1.000  O
  O18      1.0000 0.56161  0.08117  0.37847  Biso   1.000  O
  O19      1.0000 0.96466  0.82397  0.17639  Biso   1.000  O
  O20      1.0000 0.97346  0.65179  0.43328  Biso   1.000  O
  O21      1.0000 0.79637  0.24180  0.25626  Biso   1.000  O
  O22      1.0000 0.78273  0.21877  0.50444  Biso   1.000  O
  O23      1.0000 0.72499  0.73942  0.01851  Biso   1.000  O
  O24      1.0000 0.73472  0.71875  0.27278  Biso   1.000  O
  Hf13     1.0000 0.63695  0.04018  0.65202  Biso   1.000  Hf
  Hf14     1.0000 0.62308  0.47185  0.90065  Biso   1.000  Hf
  Hf15     1.0000 0.86039  0.52823  0.61687  Biso   1.000  Hf
  Hf16     1.0000 0.85563  0.95624  0.86215  Biso   1.000  Hf
  O25      1.0000 0.54120  0.33968  0.59425  Biso   1.000  O
  O26      1.0000 0.52437  0.19174  0.82025  Biso   1.000  O
  O27      1.0000 0.96575  0.81353  0.68130  Biso   1.000  O
  O28      1.0000 0.95939  0.67984  0.92653  Biso   1.000  O
  O29      1.0000 0.77059  0.26185  0.75342  Biso   1.000  O
  O30      1.0000 0.75311  0.23237  0.00670  Biso   1.000  O
  O31      1.0000 0.73441  0.73294  0.52244  Biso   1.000  O
  O32      1.0000 0.71982  0.75192  0.76956  Biso   1.000  O
  Bi1      1.0000 0.47169  0.38049  0.24763  Biso   1.000  Bi
