data_image0
_cell_length_a       5.09178
_cell_length_b       10.4056
_cell_length_c       10.1197
_cell_angle_alpha    89.9632
_cell_angle_beta     90.305
_cell_angle_gamma    93.7633

_symmetry_space_group_name_H-M    "P 1"
_symmetry_int_tables_number       1

loop_
  _symmetry_equiv_pos_as_xyz
  'x, y, z'

loop_
  _atom_site_label
  _atom_site_occupancy
  _atom_site_fract_x
  _atom_site_fract_y
  _atom_site_fract_z
  _atom_site_thermal_displace_type
  _atom_site_B_iso_or_equiv
  _atom_site_type_symbol
  Hf1      1.0000 0.22332  0.96906  0.10454  Biso   1.000  Hf
  Hf2      1.0000 0.28676  0.25701  0.38962  Biso   1.000  Hf
  Hf3      1.0000 0.82479  0.23199  0.11341  Biso   1.000  Hf
  Hf4      1.0000 0.75587  0.01795  0.35193  Biso   1.000  Hf
  O1       1.0000 0.06099  0.12831  0.98256  Biso   1.000  O
  O2       1.0000 0.06265  0.10714  0.23589  Biso   1.000  O
  O3       1.0000 0.01689  0.36016  0.25390  Biso   1.000  O
  O4       1.0000 0.08577  0.38583  0.00271  Biso   1.000  O
  O5       1.0000 0.59304  0.18103  0.27840  Biso   1.000  O
  O6       1.0000 0.56244  0.06971  0.03556  Biso   1.000  O
  O7       1.0000 0.60232  0.31240  0.96764  Biso   1.000  O
  O8       1.0000 0.48766  0.42219  0.26345  Biso   1.000  O
  Hf5      1.0000 0.22795  0.98646  0.60961  Biso   1.000  Hf
  Hf6      1.0000 0.27146  0.26582  0.84364  Biso   1.000  Hf
  Hf7      1.0000 0.79856  0.23357  0.61357  Biso   1.000  Hf
  Hf8      1.0000 0.75152  0.01576  0.86174  Biso   1.000  Hf
  O9       1.0000 0.02158  0.13280  0.48772  Biso   1.000  O
  O10      1.0000 0.03492  0.11278  0.73569  Biso   1.000  O
  O11      1.0000 0.97753  0.36623  0.74743  Biso   1.000  O
  O12      1.0000 0.06079  0.38822  0.50281  Biso   1.000  O
  O13      1.0000 0.55839  0.16550  0.76126  Biso   1.000  O
  O14      1.0000 0.52323  0.08958  0.51142  Biso   1.000  O
  O15      1.0000 0.56640  0.34028  0.50593  Biso   1.000  O
  O16      1.0000 0.46771  0.43129  0.76747  Biso   1.000  O
  Hf9      1.0000 0.22524  0.52552  0.15130  Biso   1.000  Hf
  Hf10     1.0000 0.19051  0.77023  0.36248  Biso   1.000  Hf
  Hf11     1.0000 0.72333  0.73094  0.10545  Biso   1.000  Hf
  Hf12     1.0000 0.77577  0.48333  0.39433  Biso   1.000  Hf
  O17      1.0000 0.01457  0.63463  0.00104  Biso   1.000  O
  O18      1.0000 0.93899  0.61519  0.25405  Biso   1.000  O
  O19      1.0000 0.93535  0.86113  0.23441  Biso   1.000  O
  O20      1.0000 0.93243  0.87842  0.98258  Biso   1.000  O
  O21      1.0000 0.43575  0.67798  0.24430  Biso   1.000  O
  O22      1.0000 0.53318  0.56718  0.02137  Biso   1.000  O
  O23      1.0000 0.41679  0.81914  0.01874  Biso   1.000  O
  O24      1.0000 0.42332  0.92582  0.27635  Biso   1.000  O
  Hf13     1.0000 0.22883  0.52123  0.64357  Biso   1.000  Hf
  Hf14     1.0000 0.18293  0.76517  0.85530  Biso   1.000  Hf
  Hf15     1.0000 0.72340  0.73733  0.60498  Biso   1.000  Hf
  Hf16     1.0000 0.78572  0.47931  0.89681  Biso   1.000  Hf
  O25      1.0000 0.01026  0.64011  0.50121  Biso   1.000  O
  O26      1.0000 0.94338  0.61398  0.75126  Biso   1.000  O
  O27      1.0000 0.93140  0.86553  0.73446  Biso   1.000  O
  O28      1.0000 0.94343  0.88974  0.48466  Biso   1.000  O
  O29      1.0000 0.43688  0.67906  0.73910  Biso   1.000  O
  O30      1.0000 0.52316  0.58156  0.51031  Biso   1.000  O
  O31      1.0000 0.42265  0.83391  0.52300  Biso   1.000  O
  O32      1.0000 0.41534  0.92764  0.78110  Biso   1.000  O
  Ca1      1.0000 0.32566  0.25238  0.12193  Biso   1.000  Ca
