data_image0
_cell_length_a       5.10017
_cell_length_b       10.2923
_cell_length_c       10.4726
_cell_angle_alpha    90.0362
_cell_angle_beta     80.0143
_cell_angle_gamma    90.1349

_symmetry_space_group_name_H-M    "P 1"
_symmetry_int_tables_number       1

loop_
  _symmetry_equiv_pos_as_xyz
  'x, y, z'

loop_
  _atom_site_label
  _atom_site_occupancy
  _atom_site_fract_x
  _atom_site_fract_y
  _atom_site_fract_z
  _atom_site_thermal_displace_type
  _atom_site_B_iso_or_equiv
  _atom_site_type_symbol
  Ca1      1.0000 0.28293  0.01633  0.14566  Biso   1.000  Ca
  Hf1      1.0000 0.28012  0.02082  0.64637  Biso   1.000  Hf
  Hf2      1.0000 0.27712  0.51922  0.14472  Biso   1.000  Hf
  Hf3      1.0000 0.27926  0.52150  0.64593  Biso   1.000  Hf
  Hf4      1.0000 0.27995  0.22805  0.39597  Biso   1.000  Hf
  Hf5      1.0000 0.27849  0.22904  0.89752  Biso   1.000  Hf
  Hf6      1.0000 0.27808  0.72682  0.39563  Biso   1.000  Hf
  Hf7      1.0000 0.28461  0.73006  0.89572  Biso   1.000  Hf
  Hf8      1.0000 0.71469  0.26724  0.10315  Biso   1.000  Hf
  Hf9      1.0000 0.71950  0.27088  0.60415  Biso   1.000  Hf
  Hf10     1.0000 0.71795  0.76977  0.10431  Biso   1.000  Hf
  Hf11     1.0000 0.72154  0.77229  0.60310  Biso   1.000  Hf
  Hf12     1.0000 0.71804  0.47766  0.35277  Biso   1.000  Hf
  Hf13     1.0000 0.72108  0.47889  0.85347  Biso   1.000  Hf
  Hf14     1.0000 0.71734  0.97966  0.35273  Biso   1.000  Hf
  Hf15     1.0000 0.72034  0.97913  0.85574  Biso   1.000  Hf
  O1       1.0000 0.06630  0.17972  0.07665  Biso   1.000  O
  O2       1.0000 0.06859  0.17008  0.58443  Biso   1.000  O
  O3       1.0000 0.06986  0.66671  0.07856  Biso   1.000  O
  O4       1.0000 0.06762  0.66693  0.58054  Biso   1.000  O
  O5       1.0000 0.05840  0.08407  0.34477  Biso   1.000  O
  O6       1.0000 0.07200  0.08196  0.83000  Biso   1.000  O
  O7       1.0000 0.06406  0.58269  0.32847  Biso   1.000  O
  O8       1.0000 0.06848  0.58345  0.82818  Biso   1.000  O
  O9       1.0000 0.92566  0.41776  0.16971  Biso   1.000  O
  O10      1.0000 0.93158  0.41823  0.66881  Biso   1.000  O
  O11      1.0000 0.90180  0.91781  0.17128  Biso   1.000  O
  O12      1.0000 0.93213  0.91697  0.67119  Biso   1.000  O
  O13      1.0000 0.93011  0.33359  0.42122  Biso   1.000  O
  O14      1.0000 0.93331  0.33639  0.91673  Biso   1.000  O
  O15      1.0000 0.93268  0.83224  0.42104  Biso   1.000  O
  O16      1.0000 0.94506  0.83582  0.92048  Biso   1.000  O
  O17      1.0000 0.56666  0.13562  0.24989  Biso   1.000  O
  O18      1.0000 0.55241  0.12822  0.73944  Biso   1.000  O
  O19      1.0000 0.54947  0.62364  0.23931  Biso   1.000  O
  O20      1.0000 0.55253  0.62968  0.73931  Biso   1.000  O
  O21      1.0000 0.54667  0.12159  0.49449  Biso   1.000  O
  O22      1.0000 0.56820  0.12754  0.98214  Biso   1.000  O
  O23      1.0000 0.55101  0.62098  0.49012  Biso   1.000  O
  O24      1.0000 0.55113  0.61737  0.98952  Biso   1.000  O
  O25      1.0000 0.44678  0.37934  0.00796  Biso   1.000  O
  O26      1.0000 0.44780  0.37926  0.50942  Biso   1.000  O
  O27      1.0000 0.46840  0.86892  0.99967  Biso   1.000  O
  O28      1.0000 0.44833  0.87855  0.51045  Biso   1.000  O
  O29      1.0000 0.43974  0.37249  0.25939  Biso   1.000  O
  O30      1.0000 0.44950  0.37191  0.75819  Biso   1.000  O
  O31      1.0000 0.45279  0.86100  0.26505  Biso   1.000  O
  O32      1.0000 0.44989  0.87209  0.75667  Biso   1.000  O
