data_image0
_cell_length_a       5.08854
_cell_length_b       10.3464
_cell_length_c       10.6747
_cell_angle_alpha    89.9731
_cell_angle_beta     78.6094
_cell_angle_gamma    91.1301

_symmetry_space_group_name_H-M    "P 1"
_symmetry_int_tables_number       1

loop_
  _symmetry_equiv_pos_as_xyz
  'x, y, z'

loop_
  _atom_site_label
  _atom_site_occupancy
  _atom_site_fract_x
  _atom_site_fract_y
  _atom_site_fract_z
  _atom_site_thermal_displace_type
  _atom_site_B_iso_or_equiv
  _atom_site_type_symbol
  Hf1      1.0000 0.29033  0.01414  0.15156  Biso   1.000  Hf
  Hf2      1.0000 0.32230  0.23040  0.41923  Biso   1.000  Hf
  Hf3      1.0000 0.66639  0.26959  0.08587  Biso   1.000  Hf
  Hf4      1.0000 0.69833  0.48586  0.35353  Biso   1.000  Hf
  O1       1.0000 0.02602  0.15185  0.06193  Biso   1.000  O
  O2       1.0000 0.09890  0.06518  0.34457  Biso   1.000  O
  O3       1.0000 0.88978  0.43482  0.16052  Biso   1.000  O
  O4       1.0000 0.96266  0.34814  0.44318  Biso   1.000  O
  O5       1.0000 0.58410  0.12812  0.24751  Biso   1.000  O
  O6       1.0000 0.58846  0.11762  0.49758  Biso   1.000  O
  O7       1.0000 0.40021  0.38237  0.00753  Biso   1.000  O
  O8       1.0000 0.40458  0.37189  0.25761  Biso   1.000  O
  Hf5      1.0000 0.28207  0.01875  0.64844  Biso   1.000  Hf
  Hf6      1.0000 0.25261  0.22493  0.89214  Biso   1.000  Hf
  Hf7      1.0000 0.73607  0.27506  0.61296  Biso   1.000  Hf
  Hf8      1.0000 0.70660  0.48124  0.85666  Biso   1.000  Hf
  O9       1.0000 0.08515  0.16914  0.58955  Biso   1.000  O
  O10      1.0000 0.05673  0.08110  0.82309  Biso   1.000  O
  O11      1.0000 0.93196  0.41890  0.68202  Biso   1.000  O
  O12      1.0000 0.90354  0.33086  0.91555  Biso   1.000  O
  O13      1.0000 0.54736  0.12829  0.74385  Biso   1.000  O
  O14      1.0000 0.52380  0.11801  0.98651  Biso   1.000  O
  O15      1.0000 0.46489  0.38199  0.51860  Biso   1.000  O
  O16      1.0000 0.44132  0.37170  0.76125  Biso   1.000  O
  Hf9      1.0000 0.26544  0.52806  0.14744  Biso   1.000  Hf
  Hf10     1.0000 0.26806  0.72698  0.39980  Biso   1.000  Hf
  Hf11     1.0000 0.72061  0.77302  0.10529  Biso   1.000  Hf
  Hf12     1.0000 0.72324  0.97194  0.35766  Biso   1.000  Hf
  O17      1.0000 0.06297  0.67216  0.07904  Biso   1.000  O
  O18      1.0000 0.05338  0.58577  0.32712  Biso   1.000  O
  O19      1.0000 0.93529  0.91423  0.17798  Biso   1.000  O
  O20      1.0000 0.92571  0.82784  0.42606  Biso   1.000  O
  O21      1.0000 0.54218  0.63194  0.24526  Biso   1.000  O
  O22      1.0000 0.53833  0.62341  0.49363  Biso   1.000  O
  O23      1.0000 0.45034  0.87659  0.01147  Biso   1.000  O
  O24      1.0000 0.44650  0.86806  0.25983  Biso   1.000  O
  Hf13     1.0000 0.27481  0.52426  0.65087  Biso   1.000  Hf
  Hf14     1.0000 0.26909  0.72909  0.89932  Biso   1.000  Hf
  Hf15     1.0000 0.71958  0.77090  0.60578  Biso   1.000  Hf
  Hf16     1.0000 0.71386  0.97574  0.85423  Biso   1.000  Hf
  O25      1.0000 0.05709  0.66315  0.58053  Biso   1.000  O
  O26      1.0000 0.05956  0.58641  0.83108  Biso   1.000  O
  O27      1.0000 0.92912  0.91359  0.67402  Biso   1.000  O
  O28      1.0000 0.93159  0.83685  0.92457  Biso   1.000  O
  O29      1.0000 0.54770  0.62914  0.74357  Biso   1.000  O
  O30      1.0000 0.54580  0.62315  0.99320  Biso   1.000  O
  O31      1.0000 0.44288  0.87685  0.51190  Biso   1.000  O
  O32      1.0000 0.44098  0.87086  0.76153  Biso   1.000  O
  Ce1      1.0000 0.99436  0.25001  0.25255  Biso   1.000  Ce
