data_image0
_cell_length_a       9.98258
_cell_length_b       5.08149
_cell_length_c       10.4045
_cell_angle_alpha    90.0714
_cell_angle_beta     90.7586
_cell_angle_gamma    89.3093

_symmetry_space_group_name_H-M    "P 1"
_symmetry_int_tables_number       1

loop_
  _symmetry_equiv_pos_as_xyz
  'x, y, z'

loop_
  _atom_site_label
  _atom_site_occupancy
  _atom_site_fract_x
  _atom_site_fract_y
  _atom_site_fract_z
  _atom_site_thermal_displace_type
  _atom_site_B_iso_or_equiv
  _atom_site_type_symbol
  Co1      1.0000 0.12077  0.02454  0.19322  Biso   1.000  Co
  Hf1      1.0000 0.13842  0.04061  0.66917  Biso   1.000  Hf
  Hf2      1.0000 0.13735  0.46001  0.41565  Biso   1.000  Hf
  Hf3      1.0000 0.14574  0.45803  0.92248  Biso   1.000  Hf
  Hf4      1.0000 0.35302  0.55497  0.16603  Biso   1.000  Hf
  Hf5      1.0000 0.36140  0.54572  0.67030  Biso   1.000  Hf
  Hf6      1.0000 0.35624  0.96443  0.41671  Biso   1.000  Hf
  Hf7      1.0000 0.35998  0.96599  0.92405  Biso   1.000  Hf
  Hf8      1.0000 0.63957  0.04297  0.07785  Biso   1.000  Hf
  Hf9      1.0000 0.63594  0.04021  0.58038  Biso   1.000  Hf
  Hf10     1.0000 0.63338  0.45601  0.32747  Biso   1.000  Hf
  Hf11     1.0000 0.64017  0.46058  0.83086  Biso   1.000  Hf
  Hf12     1.0000 0.87031  0.52937  0.08404  Biso   1.000  Hf
  Hf13     1.0000 0.85879  0.53720  0.58099  Biso   1.000  Hf
  Hf14     1.0000 0.85553  0.95408  0.33230  Biso   1.000  Hf
  Hf15     1.0000 0.86517  0.95427  0.83281  Biso   1.000  Hf
  O1       1.0000 0.04998  0.30248  0.09555  Biso   1.000  O
  O2       1.0000 0.03071  0.31977  0.57653  Biso   1.000  O
  O3       1.0000 0.03338  0.15573  0.33243  Biso   1.000  O
  O4       1.0000 0.03551  0.17242  0.83412  Biso   1.000  O
  O5       1.0000 0.46814  0.83872  0.08574  Biso   1.000  O
  O6       1.0000 0.46169  0.84373  0.58476  Biso   1.000  O
  O7       1.0000 0.45608  0.65571  0.33796  Biso   1.000  O
  O8       1.0000 0.46772  0.67004  0.83387  Biso   1.000  O
  O9       1.0000 0.26488  0.24138  0.27966  Biso   1.000  O
  O10      1.0000 0.27673  0.24349  0.78592  Biso   1.000  O
  O11      1.0000 0.30312  0.30656  0.02330  Biso   1.000  O
  O12      1.0000 0.27593  0.25796  0.53781  Biso   1.000  O
  O13      1.0000 0.21073  0.76032  0.29102  Biso   1.000  O
  O14      1.0000 0.22403  0.74543  0.79672  Biso   1.000  O
  O15      1.0000 0.21612  0.79665  0.05081  Biso   1.000  O
  O16      1.0000 0.22044  0.75335  0.54167  Biso   1.000  O
  O17      1.0000 0.53486  0.34346  0.16195  Biso   1.000  O
  O18      1.0000 0.53599  0.34336  0.66153  Biso   1.000  O
  O19      1.0000 0.53215  0.15789  0.41009  Biso   1.000  O
  O20      1.0000 0.54060  0.15856  0.91046  Biso   1.000  O
  O21      1.0000 0.97373  0.82878  0.17156  Biso   1.000  O
  O22      1.0000 0.96885  0.81932  0.67077  Biso   1.000  O
  O23      1.0000 0.96196  0.66094  0.41626  Biso   1.000  O
  O24      1.0000 0.97062  0.66301  0.92591  Biso   1.000  O
  O25      1.0000 0.78321  0.24558  0.95898  Biso   1.000  O
  O26      1.0000 0.77373  0.24365  0.45632  Biso   1.000  O
  O27      1.0000 0.77790  0.24667  0.20673  Biso   1.000  O
  O28      1.0000 0.77825  0.24986  0.70740  Biso   1.000  O
  O29      1.0000 0.72853  0.74270  0.95878  Biso   1.000  O
  O30      1.0000 0.71923  0.74353  0.45701  Biso   1.000  O
  O31      1.0000 0.72909  0.74606  0.20645  Biso   1.000  O
  O32      1.0000 0.72435  0.75390  0.70761  Biso   1.000  O
