data_image0
_cell_length_a       5.02477
_cell_length_b       10.2338
_cell_length_c       10.3865
_cell_angle_alpha    89.9872
_cell_angle_beta     80.3208
_cell_angle_gamma    89.9109

_symmetry_space_group_name_H-M    "P 1"
_symmetry_int_tables_number       1

loop_
  _symmetry_equiv_pos_as_xyz
  'x, y, z'

loop_
  _atom_site_label
  _atom_site_occupancy
  _atom_site_fract_x
  _atom_site_fract_y
  _atom_site_fract_z
  _atom_site_thermal_displace_type
  _atom_site_B_iso_or_equiv
  _atom_site_type_symbol
  Cr1      1.0000 0.26921  0.02511  0.14921  Biso   1.000  Cr
  Hf1      1.0000 0.27928  0.22759  0.39242  Biso   1.000  Hf
  Hf2      1.0000 0.72341  0.26715  0.10588  Biso   1.000  Hf
  Hf3      1.0000 0.72333  0.47931  0.35381  Biso   1.000  Hf
  O1       1.0000 0.07955  0.16214  0.08528  Biso   1.000  O
  O2       1.0000 0.08110  0.07939  0.31775  Biso   1.000  O
  O3       1.0000 0.92976  0.41912  0.16831  Biso   1.000  O
  O4       1.0000 0.92671  0.32808  0.41731  Biso   1.000  O
  O5       1.0000 0.54435  0.12377  0.23609  Biso   1.000  O
  O6       1.0000 0.55752  0.12075  0.48784  Biso   1.000  O
  O7       1.0000 0.44710  0.37885  0.01050  Biso   1.000  O
  O8       1.0000 0.44987  0.36942  0.25878  Biso   1.000  O
  Hf4      1.0000 0.27559  0.02057  0.64577  Biso   1.000  Hf
  Hf5      1.0000 0.27849  0.22606  0.89834  Biso   1.000  Hf
  Hf6      1.0000 0.72111  0.27132  0.60385  Biso   1.000  Hf
  Hf7      1.0000 0.72173  0.47825  0.85615  Biso   1.000  Hf
  O9       1.0000 0.07080  0.16685  0.57599  Biso   1.000  O
  O10      1.0000 0.06813  0.08039  0.83074  Biso   1.000  O
  O11      1.0000 0.92810  0.41911  0.66986  Biso   1.000  O
  O12      1.0000 0.92575  0.32568  0.92129  Biso   1.000  O
  O13      1.0000 0.55259  0.12898  0.74158  Biso   1.000  O
  O14      1.0000 0.54457  0.11789  0.99724  Biso   1.000  O
  O15      1.0000 0.44533  0.37876  0.50906  Biso   1.000  O
  O16      1.0000 0.44564  0.37002  0.76051  Biso   1.000  O
  Hf8      1.0000 0.27868  0.52263  0.14597  Biso   1.000  Hf
  Hf9      1.0000 0.28032  0.73079  0.39466  Biso   1.000  Hf
  Hf10     1.0000 0.72093  0.77816  0.10492  Biso   1.000  Hf
  Hf11     1.0000 0.72396  0.97966  0.34966  Biso   1.000  Hf
  O17      1.0000 0.06969  0.67137  0.08311  Biso   1.000  O
  O18      1.0000 0.07629  0.57845  0.33261  Biso   1.000  O
  O19      1.0000 0.95516  0.92454  0.16407  Biso   1.000  O
  O20      1.0000 0.92726  0.83028  0.41654  Biso   1.000  O
  O21      1.0000 0.55598  0.63187  0.24115  Biso   1.000  O
  O22      1.0000 0.55543  0.62089  0.49124  Biso   1.000  O
  O23      1.0000 0.43425  0.88603  0.01412  Biso   1.000  O
  O24      1.0000 0.45035  0.87574  0.25629  Biso   1.000  O
  Hf12     1.0000 0.27880  0.52156  0.64670  Biso   1.000  Hf
  Hf13     1.0000 0.27576  0.73037  0.89874  Biso   1.000  Hf
  Hf14     1.0000 0.72159  0.77132  0.60443  Biso   1.000  Hf
  Hf15     1.0000 0.71511  0.97942  0.85675  Biso   1.000  Hf
  O25      1.0000 0.07428  0.67120  0.58118  Biso   1.000  O
  O26      1.0000 0.07378  0.57889  0.83338  Biso   1.000  O
  O27      1.0000 0.92490  0.92040  0.66909  Biso   1.000  O
  O28      1.0000 0.91965  0.82906  0.91848  Biso   1.000  O
  O29      1.0000 0.55496  0.62924  0.74232  Biso   1.000  O
  O30      1.0000 0.55484  0.62325  0.99246  Biso   1.000  O
  O31      1.0000 0.44595  0.87951  0.50834  Biso   1.000  O
  O32      1.0000 0.44305  0.87080  0.76023  Biso   1.000  O
