data_image0
_cell_length_a       10.0544
_cell_length_b       4.99721
_cell_length_c       10.0549
_cell_angle_alpha    90.0001
_cell_angle_beta     90
_cell_angle_gamma    89.9999

_symmetry_space_group_name_H-M    "P 1"
_symmetry_int_tables_number       1

loop_
  _symmetry_equiv_pos_as_xyz
  'x, y, z'

loop_
  _atom_site_label
  _atom_site_occupancy
  _atom_site_fract_x
  _atom_site_fract_y
  _atom_site_fract_z
  _atom_site_thermal_displace_type
  _atom_site_B_iso_or_equiv
  _atom_site_type_symbol
  Cr1      1.0000 0.12491  0.00011  0.12491  Biso   1.000  Cr
  Hf1      1.0000 0.12491  0.50011  0.37488  Biso   1.000  Hf
  Hf2      1.0000 0.37486  0.50011  0.12491  Biso   1.000  Hf
  Hf3      1.0000 0.37361  0.00913  0.37362  Biso   1.000  Hf
  O1       1.0000 0.97639  0.30068  0.97637  Biso   1.000  O
  O2       1.0000 0.02349  0.21124  0.22629  Biso   1.000  O
  O3       1.0000 0.97639  0.69954  0.27345  Biso   1.000  O
  O4       1.0000 0.02350  0.78898  0.02353  Biso   1.000  O
  O5       1.0000 0.27343  0.30067  0.27345  Biso   1.000  O
  O6       1.0000 0.22632  0.21124  0.02353  Biso   1.000  O
  O7       1.0000 0.27343  0.69953  0.97637  Biso   1.000  O
  O8       1.0000 0.22633  0.78897  0.22629  Biso   1.000  O
  Hf4      1.0000 0.12491  0.00011  0.62491  Biso   1.000  Hf
  Hf5      1.0000 0.12491  0.50011  0.87494  Biso   1.000  Hf
  Hf6      1.0000 0.37566  0.50011  0.62491  Biso   1.000  Hf
  Hf7      1.0000 0.37361  0.99109  0.87620  Biso   1.000  Hf
  O9       1.0000 0.98734  0.26169  0.47903  Biso   1.000  O
  O10      1.0000 0.01086  0.24744  0.73213  Biso   1.000  O
  O11      1.0000 0.98733  0.73852  0.77079  Biso   1.000  O
  O12      1.0000 0.01086  0.75277  0.51769  Biso   1.000  O
  O13      1.0000 0.26248  0.26170  0.77079  Biso   1.000  O
  O14      1.0000 0.23896  0.24744  0.51769  Biso   1.000  O
  O15      1.0000 0.26248  0.73852  0.47903  Biso   1.000  O
  O16      1.0000 0.23896  0.75278  0.73213  Biso   1.000  O
  Hf8      1.0000 0.62491  0.00011  0.12491  Biso   1.000  Hf
  Hf9      1.0000 0.62491  0.50011  0.37564  Biso   1.000  Hf
  Hf10     1.0000 0.87495  0.50011  0.12491  Biso   1.000  Hf
  Hf11     1.0000 0.87620  0.99109  0.37362  Biso   1.000  Hf
  O17      1.0000 0.47905  0.26174  0.98729  Biso   1.000  O
  O18      1.0000 0.51765  0.24742  0.23891  Biso   1.000  O
  O19      1.0000 0.47905  0.73848  0.26253  Biso   1.000  O
  O20      1.0000 0.51765  0.75280  0.01090  Biso   1.000  O
  O21      1.0000 0.77077  0.26174  0.26253  Biso   1.000  O
  O22      1.0000 0.73216  0.24742  0.01090  Biso   1.000  O
  O23      1.0000 0.77077  0.73847  0.98729  Biso   1.000  O
  O24      1.0000 0.73216  0.75279  0.23892  Biso   1.000  O
  Hf12     1.0000 0.62491  0.00011  0.62491  Biso   1.000  Hf
  Hf13     1.0000 0.62491  0.50011  0.87418  Biso   1.000  Hf
  Hf14     1.0000 0.87416  0.50011  0.62491  Biso   1.000  Hf
  Hf15     1.0000 0.87620  0.00912  0.87620  Biso   1.000  Hf
  O25      1.0000 0.48737  0.25842  0.48732  Biso   1.000  O
  O26      1.0000 0.51204  0.24970  0.73773  Biso   1.000  O
  O27      1.0000 0.48737  0.74179  0.76249  Biso   1.000  O
  O28      1.0000 0.51204  0.75051  0.51209  Biso   1.000  O
  O29      1.0000 0.76245  0.25842  0.76250  Biso   1.000  O
  O30      1.0000 0.73778  0.24971  0.51209  Biso   1.000  O
  O31      1.0000 0.76245  0.74179  0.48732  Biso   1.000  O
  O32      1.0000 0.73777  0.75051  0.73773  Biso   1.000  O
