data_image0
_cell_length_a       10.0619
_cell_length_b       10.2403
_cell_length_c       10.4822
_cell_angle_alpha    89.7149
_cell_angle_beta     90.4692
_cell_angle_gamma    89.9431

_symmetry_space_group_name_H-M    "P 1"
_symmetry_int_tables_number       1

loop_
  _symmetry_equiv_pos_as_xyz
  'x, y, z'

loop_
  _atom_site_label
  _atom_site_occupancy
  _atom_site_fract_x
  _atom_site_fract_y
  _atom_site_fract_z
  _atom_site_thermal_displace_type
  _atom_site_B_iso_or_equiv
  _atom_site_type_symbol
  Hf1      1.0000 0.13919  0.01982  0.17166  Biso   1.000  Hf
  Hf2      1.0000 0.13604  0.22935  0.42334  Biso   1.000  Hf
  Hf3      1.0000 0.35280  0.26983  0.17704  Biso   1.000  Hf
  Hf4      1.0000 0.36063  0.48045  0.42394  Biso   1.000  Hf
  Hf5      1.0000 0.63897  0.01821  0.06971  Biso   1.000  Hf
  Hf6      1.0000 0.63451  0.23139  0.33822  Biso   1.000  Hf
  Hf7      1.0000 0.87235  0.27120  0.07448  Biso   1.000  Hf
  Hf8      1.0000 0.86242  0.48011  0.32895  Biso   1.000  Hf
  O1       1.0000 0.03823  0.16294  0.07974  Biso   1.000  O
  O2       1.0000 0.02734  0.09028  0.32846  Biso   1.000  O
  O3       1.0000 0.47242  0.40871  0.08358  Biso   1.000  O
  O4       1.0000 0.46248  0.33544  0.33618  Biso   1.000  O
  O5       1.0000 0.27017  0.12416  0.29813  Biso   1.000  O
  O6       1.0000 0.27710  0.12410  0.04417  Biso   1.000  O
  O7       1.0000 0.22004  0.37513  0.29775  Biso   1.000  O
  O8       1.0000 0.22472  0.37649  0.04483  Biso   1.000  O
  O9       1.0000 0.51060  0.14411  0.17607  Biso   1.000  O
  O10      1.0000 0.52998  0.08659  0.42374  Biso   1.000  O
  O11      1.0000 0.96964  0.41520  0.16876  Biso   1.000  O
  O12      1.0000 0.96635  0.33751  0.41978  Biso   1.000  O
  O13      1.0000 0.77802  0.12256  0.45418  Biso   1.000  O
  O14      1.0000 0.75605  0.14186  0.19456  Biso   1.000  O
  O15      1.0000 0.72371  0.37412  0.45978  Biso   1.000  O
  O16      1.0000 0.72371  0.38540  0.20841  Biso   1.000  O
  Hf9      1.0000 0.14019  0.02043  0.67079  Biso   1.000  Hf
  Hf10     1.0000 0.14309  0.22661  0.91890  Biso   1.000  Hf
  Hf11     1.0000 0.36480  0.26989  0.67277  Biso   1.000  Hf
  Hf12     1.0000 0.36191  0.47777  0.92031  Biso   1.000  Hf
  Hf13     1.0000 0.63896  0.02146  0.58028  Biso   1.000  Hf
  Hf14     1.0000 0.64285  0.22495  0.83419  Biso   1.000  Hf
  Hf15     1.0000 0.86122  0.27070  0.58115  Biso   1.000  Hf
  Hf16     1.0000 0.86283  0.47921  0.82928  Biso   1.000  Hf
  O17      1.0000 0.03263  0.16433  0.58295  Biso   1.000  O
  O18      1.0000 0.03744  0.08351  0.83103  Biso   1.000  O
  O19      1.0000 0.46815  0.41566  0.58519  Biso   1.000  O
  O20      1.0000 0.46882  0.33294  0.83693  Biso   1.000  O
  O21      1.0000 0.27880  0.12261  0.79439  Biso   1.000  O
  O22      1.0000 0.27592  0.12611  0.54597  Biso   1.000  O
  O23      1.0000 0.22619  0.37307  0.79485  Biso   1.000  O
  O24      1.0000 0.22438  0.37611  0.54633  Biso   1.000  O
  O25      1.0000 0.53495  0.16499  0.66888  Biso   1.000  O
  O26      1.0000 0.53377  0.07437  0.90775  Biso   1.000  O
  O27      1.0000 0.96700  0.41536  0.66726  Biso   1.000  O
  O28      1.0000 0.97142  0.33534  0.91365  Biso   1.000  O
  O29      1.0000 0.79204  0.11675  0.94768  Biso   1.000  O
  O30      1.0000 0.77805  0.12491  0.70299  Biso   1.000  O
  O31      1.0000 0.72347  0.37262  0.96465  Biso   1.000  O
  O32      1.0000 0.72514  0.37582  0.71055  Biso   1.000  O
  Hf17     1.0000 0.13954  0.52201  0.17225  Biso   1.000  Hf
  Hf18     1.0000 0.13758  0.72974  0.42145  Biso   1.000  Hf
  Hf19     1.0000 0.36091  0.77173  0.17270  Biso   1.000  Hf
  Hf20     1.0000 0.36142  0.97879  0.42361  Biso   1.000  Hf
  Hf21     1.0000 0.64219  0.53121  0.07794  Biso   1.000  Hf
  Hf22     1.0000 0.63886  0.73074  0.32904  Biso   1.000  Hf
  Hf23     1.0000 0.86364  0.77342  0.07828  Biso   1.000  Hf
  Hf24     1.0000 0.85961  0.98027  0.32733  Biso   1.000  Hf
  O33      1.0000 0.03414  0.66520  0.08292  Biso   1.000  O
  O34      1.0000 0.03224  0.58714  0.33225  Biso   1.000  O
  O35      1.0000 0.46693  0.90936  0.07931  Biso   1.000  O
  O36      1.0000 0.46755  0.83749  0.33280  Biso   1.000  O
  O37      1.0000 0.27499  0.62478  0.29654  Biso   1.000  O
  O38      1.0000 0.27851  0.62416  0.04578  Biso   1.000  O
  O39      1.0000 0.22334  0.87412  0.29600  Biso   1.000  O
  O40      1.0000 0.22212  0.87449  0.04599  Biso   1.000  O
  O41      1.0000 0.53079  0.66407  0.17054  Biso   1.000  O
  O42      1.0000 0.53271  0.58635  0.41862  Biso   1.000  O
  O43      1.0000 0.96591  0.91836  0.16570  Biso   1.000  O
  O44      1.0000 0.96547  0.83800  0.41477  Biso   1.000  O
  O45      1.0000 0.77636  0.62393  0.45442  Biso   1.000  O
  O46      1.0000 0.77838  0.63252  0.20496  Biso   1.000  O
  O47      1.0000 0.72309  0.87452  0.45497  Biso   1.000  O
  O48      1.0000 0.72522  0.87930  0.20490  Biso   1.000  O
  Hf25     1.0000 0.13854  0.52032  0.67100  Biso   1.000  Hf
  Hf26     1.0000 0.13984  0.72741  0.92165  Biso   1.000  Hf
  Hf27     1.0000 0.36197  0.76980  0.67176  Biso   1.000  Hf
  Hf28     1.0000 0.36075  0.97517  0.92088  Biso   1.000  Hf
  Hf29     1.0000 0.63970  0.52100  0.57960  Biso   1.000  Hf
  Hf30     1.0000 0.63968  0.72871  0.82670  Biso   1.000  Hf
  Hf31     1.0000 0.86131  0.77159  0.57757  Biso   1.000  Hf
  Hf32     1.0000 0.86509  0.97694  0.82631  Biso   1.000  Hf
  O49      1.0000 0.03245  0.66479  0.58133  Biso   1.000  O
  O50      1.0000 0.03366  0.58497  0.83181  Biso   1.000  O
  O51      1.0000 0.46763  0.91349  0.58443  Biso   1.000  O
  O52      1.0000 0.46696  0.83135  0.83242  Biso   1.000  O
  O53      1.0000 0.27688  0.62167  0.79517  Biso   1.000  O
  O54      1.0000 0.27501  0.62621  0.54558  Biso   1.000  O
  O55      1.0000 0.22435  0.87166  0.79487  Biso   1.000  O
  O56      1.0000 0.22427  0.87575  0.54489  Biso   1.000  O
  O57      1.0000 0.53316  0.66389  0.66684  Biso   1.000  O
  O58      1.0000 0.53336  0.58527  0.91714  Biso   1.000  O
  O59      1.0000 0.96958  0.91388  0.66379  Biso   1.000  O
  O60      1.0000 0.97019  0.83422  0.91677  Biso   1.000  O
  O61      1.0000 0.77934  0.62449  0.95320  Biso   1.000  O
  O62      1.0000 0.77750  0.62592  0.70410  Biso   1.000  O
  O63      1.0000 0.72604  0.87080  0.95320  Biso   1.000  O
  O64      1.0000 0.72528  0.87474  0.70412  Biso   1.000  O
  Cr1      1.0000 0.61335  0.27411  0.10292  Biso   1.000  Cr
