data_image0
_cell_length_a       10.5234
_cell_length_b       10.605
_cell_length_c       5.15319
_cell_angle_alpha    93.7382
_cell_angle_beta     88.2097
_cell_angle_gamma    97.5503

_symmetry_space_group_name_H-M    "P 1"
_symmetry_int_tables_number       1

loop_
  _symmetry_equiv_pos_as_xyz
  'x, y, z'

loop_
  _atom_site_label
  _atom_site_occupancy
  _atom_site_fract_x
  _atom_site_fract_y
  _atom_site_fract_z
  _atom_site_thermal_displace_type
  _atom_site_B_iso_or_equiv
  _atom_site_type_symbol
  Hf1      1.0000 0.15415  0.96572  0.38821  Biso   1.000  Hf
  Hf2      1.0000 0.10796  0.11460  0.95603  Biso   1.000  Hf
  Hf3      1.0000 0.36163  0.27767  0.21610  Biso   1.000  Hf
  Hf4      1.0000 0.38200  0.01038  0.81597  Biso   1.000  Hf
  O1       1.0000 0.93359  0.17437  0.01221  Biso   1.000  O
  O2       1.0000 0.00928  0.02616  0.63036  Biso   1.000  O
  O3       1.0000 0.86128  0.40424  0.46306  Biso   1.000  O
  O4       1.0000 0.96975  0.43090  0.00597  Biso   1.000  O
  O5       1.0000 0.23977  0.09810  0.66091  Biso   1.000  O
  O6       1.0000 0.27570  0.08451  0.14817  Biso   1.000  O
  O7       1.0000 0.18775  0.30416  0.03882  Biso   1.000  O
  O8       1.0000 0.26582  0.41889  0.42756  Biso   1.000  O
  Hf5      1.0000 0.14196  0.48742  0.18574  Biso   1.000  Hf
  Hf6      1.0000 0.17740  0.72219  0.69874  Biso   1.000  Hf
  Hf7      1.0000 0.39635  0.76354  0.19676  Biso   1.000  Hf
  Hf8      1.0000 0.39662  0.50678  0.68562  Biso   1.000  Hf
  O9       1.0000 0.01456  0.68661  0.94930  Biso   1.000  O
  O10      1.0000 0.06911  0.55718  0.52415  Biso   1.000  O
  O11      1.0000 0.05616  0.79125  0.45470  Biso   1.000  O
  O12      1.0000 0.01667  0.94628  0.10440  Biso   1.000  O
  O13      1.0000 0.32190  0.64751  0.47749  Biso   1.000  O
  O14      1.0000 0.26107  0.59320  0.95177  Biso   1.000  O
  O15      1.0000 0.26165  0.84523  0.99942  Biso   1.000  O
  O16      1.0000 0.30387  0.87657  0.51200  Biso   1.000  O
  Hf9      1.0000 0.64386  0.98586  0.26717  Biso   1.000  Hf
  Hf10     1.0000 0.60259  0.24327  0.66184  Biso   1.000  Hf
  Hf11     1.0000 0.80952  0.29771  0.15567  Biso   1.000  Hf
  Hf12     1.0000 0.82979  0.03846  0.75490  Biso   1.000  Hf
  O17      1.0000 0.47004  0.18917  0.94537  Biso   1.000  O
  O18      1.0000 0.51794  0.06788  0.51702  Biso   1.000  O
  O19      1.0000 0.43970  0.32380  0.56895  Biso   1.000  O
  O20      1.0000 0.44952  0.43325  0.03043  Biso   1.000  O
  O21      1.0000 0.76037  0.14723  0.47554  Biso   1.000  O
  O22      1.0000 0.69461  0.12746  0.97670  Biso   1.000  O
  O23      1.0000 0.72123  0.39433  0.88180  Biso   1.000  O
  O24      1.0000 0.63564  0.34110  0.32006  Biso   1.000  O
  Hf13     1.0000 0.62008  0.51253  0.15268  Biso   1.000  Hf
  Hf14     1.0000 0.66663  0.74416  0.68805  Biso   1.000  Hf
  Hf15     1.0000 0.90332  0.78242  0.20499  Biso   1.000  Hf
  Hf16     1.0000 0.89152  0.53956  0.73946  Biso   1.000  Hf
  O25      1.0000 0.52160  0.66444  0.96088  Biso   1.000  O
  O26      1.0000 0.56606  0.57127  0.51099  Biso   1.000  O
  O27      1.0000 0.55177  0.81777  0.43753  Biso   1.000  O
  O28      1.0000 0.50315  0.91983  0.01706  Biso   1.000  O
  O29      1.0000 0.81258  0.66581  0.49825  Biso   1.000  O
  O30      1.0000 0.76496  0.63966  0.99151  Biso   1.000  O
  O31      1.0000 0.75927  0.88459  0.96657  Biso   1.000  O
  O32      1.0000 0.77923  0.89890  0.46549  Biso   1.000  O
  Cs1      1.0000 0.05034  0.27916  0.54970  Biso   1.000  Cs
