data_image0
_cell_length_a       10.1825
_cell_length_b       10.2996
_cell_length_c       5.26044
_cell_angle_alpha    90.2611
_cell_angle_beta     79.5094
_cell_angle_gamma    90.0765

_symmetry_space_group_name_H-M    "P 1"
_symmetry_int_tables_number       1

loop_
  _symmetry_equiv_pos_as_xyz
  'x, y, z'

loop_
  _atom_site_label
  _atom_site_occupancy
  _atom_site_fract_x
  _atom_site_fract_y
  _atom_site_fract_z
  _atom_site_thermal_displace_type
  _atom_site_B_iso_or_equiv
  _atom_site_type_symbol
  Hf1      1.0000 0.13508  0.02220  0.28822  Biso   1.000  Hf
  Hf2      1.0000 0.13808  0.23108  0.78722  Biso   1.000  Hf
  Hf3      1.0000 0.35783  0.27561  0.21377  Biso   1.000  Hf
  Hf4      1.0000 0.35772  0.47763  0.70016  Biso   1.000  Hf
  O1       1.0000 0.03536  0.16909  0.15465  Biso   1.000  O
  O2       1.0000 0.03231  0.08334  0.65517  Biso   1.000  O
  O3       1.0000 0.46318  0.42617  0.33896  Biso   1.000  O
  O4       1.0000 0.47781  0.34733  0.86684  Biso   1.000  O
  O5       1.0000 0.27022  0.12295  0.47601  Biso   1.000  O
  O6       1.0000 0.27736  0.12069  0.97533  Biso   1.000  O
  O7       1.0000 0.22382  0.37916  0.01255  Biso   1.000  O
  O8       1.0000 0.20914  0.37664  0.50774  Biso   1.000  O
  Hf5      1.0000 0.13740  0.52264  0.28691  Biso   1.000  Hf
  Hf6      1.0000 0.13570  0.72667  0.79307  Biso   1.000  Hf
  Hf7      1.0000 0.35967  0.76966  0.20990  Biso   1.000  Hf
  Hf8      1.0000 0.35695  0.96864  0.71166  Biso   1.000  Hf
  O9       1.0000 0.03074  0.66791  0.15584  Biso   1.000  O
  O10      1.0000 0.03186  0.58501  0.65428  Biso   1.000  O
  O11      1.0000 0.46434  0.91628  0.34754  Biso   1.000  O
  O12      1.0000 0.46371  0.83090  0.84660  Biso   1.000  O
  O13      1.0000 0.27422  0.62822  0.48049  Biso   1.000  O
  O14      1.0000 0.27392  0.62203  0.98019  Biso   1.000  O
  O15      1.0000 0.22200  0.87726  0.02166  Biso   1.000  O
  O16      1.0000 0.22145  0.86870  0.52050  Biso   1.000  O
  Hf9      1.0000 0.63867  0.02047  0.29600  Biso   1.000  Hf
  Hf10     1.0000 0.64905  0.23049  0.80901  Biso   1.000  Hf
  Hf11     1.0000 0.86241  0.27298  0.21496  Biso   1.000  Hf
  Hf12     1.0000 0.86114  0.47953  0.71045  Biso   1.000  Hf
  O17      1.0000 0.53356  0.16698  0.16353  Biso   1.000  O
  O18      1.0000 0.53711  0.07723  0.67236  Biso   1.000  O
  O19      1.0000 0.96255  0.42021  0.34181  Biso   1.000  O
  O20      1.0000 0.96330  0.33371  0.84398  Biso   1.000  O
  O21      1.0000 0.77547  0.12974  0.48709  Biso   1.000  O
  O22      1.0000 0.77830  0.12027  0.98944  Biso   1.000  O
  O23      1.0000 0.72566  0.37857  0.02971  Biso   1.000  O
  O24      1.0000 0.72298  0.37210  0.52764  Biso   1.000  O
  Hf13     1.0000 0.63762  0.52416  0.29759  Biso   1.000  Hf
  Hf14     1.0000 0.63769  0.72760  0.79442  Biso   1.000  Hf
  Hf15     1.0000 0.85889  0.77194  0.20934  Biso   1.000  Hf
  Hf16     1.0000 0.86119  0.97768  0.70976  Biso   1.000  Hf
  O25      1.0000 0.53442  0.66934  0.15973  Biso   1.000  O
  O26      1.0000 0.53236  0.58575  0.65791  Biso   1.000  O
  O27      1.0000 0.96299  0.91720  0.34395  Biso   1.000  O
  O28      1.0000 0.96381  0.83356  0.84446  Biso   1.000  O
  O29      1.0000 0.77548  0.63047  0.48378  Biso   1.000  O
  O30      1.0000 0.77433  0.62152  0.98278  Biso   1.000  O
  O31      1.0000 0.72222  0.87966  0.02282  Biso   1.000  O
  O32      1.0000 0.72180  0.87223  0.52302  Biso   1.000  O
  Cu1      1.0000 0.41845  0.22075  0.64915  Biso   1.000  Cu
