data_image0
_cell_length_a       10.0085
_cell_length_b       10.1842
_cell_length_c       5.01805
_cell_angle_alpha    90.529
_cell_angle_beta     92.5219
_cell_angle_gamma    89.4984

_symmetry_space_group_name_H-M    "P 1"
_symmetry_int_tables_number       1

loop_
  _symmetry_equiv_pos_as_xyz
  'x, y, z'

loop_
  _atom_site_label
  _atom_site_occupancy
  _atom_site_fract_x
  _atom_site_fract_y
  _atom_site_fract_z
  _atom_site_thermal_displace_type
  _atom_site_B_iso_or_equiv
  _atom_site_type_symbol
  Cu1      1.0000 0.13028  0.02441  0.23374  Biso   1.000  Cu
  Hf1      1.0000 0.12656  0.24446  0.75117  Biso   1.000  Hf
  Hf2      1.0000 0.38256  0.25492  0.25666  Biso   1.000  Hf
  Hf3      1.0000 0.36106  0.98894  0.69146  Biso   1.000  Hf
  O1       1.0000 0.01485  0.13754  0.03298  Biso   1.000  O
  O2       1.0000 0.99309  0.10199  0.52867  Biso   1.000  O
  O3       1.0000 0.00962  0.34527  0.47532  Biso   1.000  O
  O4       1.0000 0.98854  0.38575  0.98223  Biso   1.000  O
  O5       1.0000 0.23853  0.13988  0.46080  Biso   1.000  O
  O6       1.0000 0.26450  0.10036  0.95937  Biso   1.000  O
  O7       1.0000 0.22647  0.33906  0.05839  Biso   1.000  O
  O8       1.0000 0.25122  0.38926  0.55084  Biso   1.000  O
  Hf4      1.0000 0.12175  0.48522  0.26451  Biso   1.000  Hf
  Hf5      1.0000 0.11904  0.73052  0.77172  Biso   1.000  Hf
  Hf6      1.0000 0.36111  0.74339  0.23599  Biso   1.000  Hf
  Hf7      1.0000 0.38322  0.51343  0.74095  Biso   1.000  Hf
  O9       1.0000 0.99752  0.64116  0.03435  Biso   1.000  O
  O10      1.0000 0.99833  0.59117  0.52869  Biso   1.000  O
  O11      1.0000 0.98470  0.83866  0.56686  Biso   1.000  O
  O12      1.0000 0.02772  0.89537  0.04987  Biso   1.000  O
  O13      1.0000 0.24328  0.64184  0.49288  Biso   1.000  O
  O14      1.0000 0.24524  0.59042  0.00399  Biso   1.000  O
  O15      1.0000 0.28326  0.83167  0.89582  Biso   1.000  O
  O16      1.0000 0.23862  0.89915  0.40069  Biso   1.000  O
  Hf8      1.0000 0.62511  0.00907  0.24069  Biso   1.000  Hf
  Hf9      1.0000 0.63091  0.24417  0.74181  Biso   1.000  Hf
  Hf10     1.0000 0.87175  0.24855  0.24862  Biso   1.000  Hf
  Hf11     1.0000 0.89169  0.98832  0.77942  Biso   1.000  Hf
  O17      1.0000 0.51998  0.16858  0.03158  Biso   1.000  O
  O18      1.0000 0.49482  0.10964  0.50723  Biso   1.000  O
  O19      1.0000 0.50322  0.36488  0.52924  Biso   1.000  O
  O20      1.0000 0.47410  0.41339  0.04316  Biso   1.000  O
  O21      1.0000 0.74088  0.15152  0.47228  Biso   1.000  O
  O22      1.0000 0.76172  0.10712  0.98351  Biso   1.000  O
  O23      1.0000 0.73621  0.36147  0.00749  Biso   1.000  O
  O24      1.0000 0.75552  0.39656  0.49983  Biso   1.000  O
  Hf12     1.0000 0.62471  0.50573  0.25365  Biso   1.000  Hf
  Hf13     1.0000 0.62211  0.76741  0.74188  Biso   1.000  Hf
  Hf14     1.0000 0.87363  0.74828  0.27915  Biso   1.000  Hf
  Hf15     1.0000 0.86412  0.50506  0.76913  Biso   1.000  Hf
  O25      1.0000 0.49903  0.66136  0.98624  Biso   1.000  O
  O26      1.0000 0.49667  0.61446  0.48872  Biso   1.000  O
  O27      1.0000 0.49704  0.85930  0.44158  Biso   1.000  O
  O28      1.0000 0.52287  0.92272  0.92770  Biso   1.000  O
  O29      1.0000 0.74666  0.64938  0.50892  Biso   1.000  O
  O30      1.0000 0.74480  0.60925  0.00962  Biso   1.000  O
  O31      1.0000 0.76426  0.85578  0.01032  Biso   1.000  O
  O32      1.0000 0.74601  0.90296  0.51327  Biso   1.000  O
