data_image0
_cell_length_a       10.07
_cell_length_b       5.1294
_cell_length_c       10.07
_cell_angle_alpha    89.9994
_cell_angle_beta     90.0004
_cell_angle_gamma    89.9992

_symmetry_space_group_name_H-M    "P 1"
_symmetry_int_tables_number       1

loop_
  _symmetry_equiv_pos_as_xyz
  'x, y, z'

loop_
  _atom_site_label
  _atom_site_occupancy
  _atom_site_fract_x
  _atom_site_fract_y
  _atom_site_fract_z
  _atom_site_thermal_displace_type
  _atom_site_B_iso_or_equiv
  _atom_site_type_symbol
  Hf1      1.0000 0.12490  0.00015  0.12490  Biso   1.000  Hf
  Hf2      1.0000 0.12490  0.50011  0.38414  Biso   1.000  Hf
  Hf3      1.0000 0.38414  0.50011  0.12490  Biso   1.000  Hf
  Hf4      1.0000 0.37587  0.00423  0.37587  Biso   1.000  Hf
  O1       1.0000 0.98748  0.30457  0.98748  Biso   1.000  O
  O2       1.0000 0.99980  0.19227  0.25002  Biso   1.000  O
  O3       1.0000 0.98748  0.69563  0.26234  Biso   1.000  O
  O4       1.0000 0.99981  0.80794  0.99981  Biso   1.000  O
  O5       1.0000 0.26233  0.30462  0.26233  Biso   1.000  O
  O6       1.0000 0.25002  0.19228  0.99980  Biso   1.000  O
  O7       1.0000 0.26234  0.69563  0.98749  Biso   1.000  O
  O8       1.0000 0.25000  0.80797  0.25001  Biso   1.000  O
  Hf5      1.0000 0.12491  0.00011  0.62491  Biso   1.000  Hf
  Hf6      1.0000 0.12491  0.50010  0.86570  Biso   1.000  Hf
  Hf7      1.0000 0.37603  0.50010  0.62491  Biso   1.000  Hf
  Hf8      1.0000 0.37587  0.99598  0.87394  Biso   1.000  Hf
  O9       1.0000 0.99489  0.29220  0.49812  Biso   1.000  O
  O10      1.0000 0.00275  0.20683  0.74649  Biso   1.000  O
  O11      1.0000 0.99490  0.70800  0.75171  Biso   1.000  O
  O12      1.0000 0.00275  0.79337  0.50333  Biso   1.000  O
  O13      1.0000 0.25492  0.29221  0.75170  Biso   1.000  O
  O14      1.0000 0.24706  0.20683  0.50333  Biso   1.000  O
  O15      1.0000 0.25492  0.70801  0.49812  Biso   1.000  O
  O16      1.0000 0.24707  0.79337  0.74649  Biso   1.000  O
  Hf9      1.0000 0.62491  0.00011  0.12491  Biso   1.000  Hf
  Hf10     1.0000 0.62491  0.50010  0.37603  Biso   1.000  Hf
  Hf11     1.0000 0.86570  0.50010  0.12491  Biso   1.000  Hf
  Hf12     1.0000 0.87394  0.99598  0.37587  Biso   1.000  Hf
  O17      1.0000 0.49812  0.29220  0.99489  Biso   1.000  O
  O18      1.0000 0.50333  0.20683  0.24707  Biso   1.000  O
  O19      1.0000 0.49811  0.70801  0.25492  Biso   1.000  O
  O20      1.0000 0.50333  0.79338  0.00275  Biso   1.000  O
  O21      1.0000 0.75170  0.29221  0.25492  Biso   1.000  O
  O22      1.0000 0.74649  0.20684  0.00275  Biso   1.000  O
  O23      1.0000 0.75171  0.70800  0.99490  Biso   1.000  O
  O24      1.0000 0.74648  0.79337  0.24707  Biso   1.000  O
  Hf13     1.0000 0.62491  0.00010  0.62490  Biso   1.000  Hf
  Hf14     1.0000 0.62491  0.50011  0.87379  Biso   1.000  Hf
  Hf15     1.0000 0.87379  0.50010  0.62491  Biso   1.000  Hf
  Hf16     1.0000 0.87394  0.00422  0.87394  Biso   1.000  Hf
  O25      1.0000 0.49590  0.29743  0.49591  Biso   1.000  O
  O26      1.0000 0.50279  0.20425  0.74702  Biso   1.000  O
  O27      1.0000 0.49591  0.70279  0.75391  Biso   1.000  O
  O28      1.0000 0.50279  0.79596  0.50279  Biso   1.000  O
  O29      1.0000 0.75391  0.29742  0.75391  Biso   1.000  O
  O30      1.0000 0.74702  0.20425  0.50279  Biso   1.000  O
  O31      1.0000 0.75391  0.70279  0.49591  Biso   1.000  O
  O32      1.0000 0.74702  0.79595  0.74702  Biso   1.000  O
  Cu1      1.0000 0.12492  0.50015  0.12492  Biso   1.000  Cu
