data_image0
_cell_length_a       4.99638
_cell_length_b       9.99511
_cell_length_c       10.1241
_cell_angle_alpha    90.4783
_cell_angle_beta     90.2338
_cell_angle_gamma    90.4792

_symmetry_space_group_name_H-M    "P 1"
_symmetry_int_tables_number       1

loop_
  _symmetry_equiv_pos_as_xyz
  'x, y, z'

loop_
  _atom_site_label
  _atom_site_occupancy
  _atom_site_fract_x
  _atom_site_fract_y
  _atom_site_fract_z
  _atom_site_thermal_displace_type
  _atom_site_B_iso_or_equiv
  _atom_site_type_symbol
  Fe1      1.0000 0.27153  0.00847  0.13879  Biso   1.000  Fe
  Hf1      1.0000 0.25111  0.24791  0.37284  Biso   1.000  Hf
  Hf2      1.0000 0.74286  0.24841  0.12205  Biso   1.000  Hf
  Hf3      1.0000 0.74232  0.99661  0.37528  Biso   1.000  Hf
  O1       1.0000 0.93559  0.15259  0.96896  Biso   1.000  O
  O2       1.0000 0.03017  0.10586  0.22106  Biso   1.000  O
  O3       1.0000 0.97192  0.35406  0.26903  Biso   1.000  O
  O4       1.0000 0.99602  0.39123  0.01774  Biso   1.000  O
  O5       1.0000 0.52540  0.13447  0.26645  Biso   1.000  O
  O6       1.0000 0.45136  0.10454  0.02480  Biso   1.000  O
  O7       1.0000 0.50799  0.35818  0.98175  Biso   1.000  O
  O8       1.0000 0.48504  0.38340  0.23353  Biso   1.000  O
  Hf4      1.0000 0.25101  0.99856  0.62392  Biso   1.000  Hf
  Hf5      1.0000 0.23636  0.24834  0.87333  Biso   1.000  Hf
  Hf6      1.0000 0.74733  0.25250  0.62305  Biso   1.000  Hf
  Hf7      1.0000 0.75473  0.00161  0.87035  Biso   1.000  Hf
  O9       1.0000 0.98807  0.13001  0.47354  Biso   1.000  O
  O10      1.0000 0.99991  0.12063  0.72460  Biso   1.000  O
  O11      1.0000 0.99416  0.37019  0.76761  Biso   1.000  O
  O12      1.0000 0.00353  0.37932  0.51718  Biso   1.000  O
  O13      1.0000 0.50290  0.13161  0.77164  Biso   1.000  O
  O14      1.0000 0.49292  0.12118  0.51835  Biso   1.000  O
  O15      1.0000 0.50713  0.36839  0.48101  Biso   1.000  O
  O16      1.0000 0.50023  0.38193  0.73176  Biso   1.000  O
  Hf8      1.0000 0.25612  0.50086  0.12269  Biso   1.000  Hf
  Hf9      1.0000 0.24102  0.74653  0.37381  Biso   1.000  Hf
  Hf10     1.0000 0.76606  0.75302  0.12467  Biso   1.000  Hf
  Hf11     1.0000 0.74824  0.49843  0.37361  Biso   1.000  Hf
  O17      1.0000 0.99656  0.64465  0.98272  Biso   1.000  O
  O18      1.0000 0.01044  0.61003  0.23409  Biso   1.000  O
  O19      1.0000 0.94991  0.85195  0.28125  Biso   1.000  O
  O20      1.0000 0.07207  0.89916  0.03425  Biso   1.000  O
  O21      1.0000 0.52168  0.64112  0.26841  Biso   1.000  O
  O22      1.0000 0.50696  0.61244  0.01813  Biso   1.000  O
  O23      1.0000 0.58319  0.85110  0.97087  Biso   1.000  O
  O24      1.0000 0.46475  0.88958  0.22264  Biso   1.000  O
  Hf12     1.0000 0.24806  0.50108  0.62723  Biso   1.000  Hf
  Hf13     1.0000 0.26835  0.75813  0.88152  Biso   1.000  Hf
  Hf14     1.0000 0.74978  0.74648  0.62672  Biso   1.000  Hf
  Hf15     1.0000 0.75055  0.50205  0.87571  Biso   1.000  Hf
  O25      1.0000 0.99175  0.62944  0.48343  Biso   1.000  O
  O26      1.0000 0.99308  0.61845  0.73303  Biso   1.000  O
  O27      1.0000 0.00591  0.87083  0.77530  Biso   1.000  O
  O28      1.0000 0.99066  0.87990  0.52444  Biso   1.000  O
  O29      1.0000 0.50000  0.63202  0.76970  Biso   1.000  O
  O30      1.0000 0.49612  0.61941  0.51790  Biso   1.000  O
  O31      1.0000 0.49379  0.87032  0.47716  Biso   1.000  O
  O32      1.0000 0.50476  0.88172  0.72778  Biso   1.000  O
