data_image0
_cell_length_a       9.90519
_cell_length_b       10.3688
_cell_length_c       4.98466
_cell_angle_alpha    90.7407
_cell_angle_beta     89.2088
_cell_angle_gamma    90.4134

_symmetry_space_group_name_H-M    "P 1"
_symmetry_int_tables_number       1

loop_
  _symmetry_equiv_pos_as_xyz
  'x, y, z'

loop_
  _atom_site_label
  _atom_site_occupancy
  _atom_site_fract_x
  _atom_site_fract_y
  _atom_site_fract_z
  _atom_site_thermal_displace_type
  _atom_site_B_iso_or_equiv
  _atom_site_type_symbol
  Fe1      1.0000 0.12455  0.03810  0.21466  Biso   1.000  Fe
  Hf1      1.0000 0.13231  0.23185  0.74025  Biso   1.000  Hf
  Hf2      1.0000 0.36529  0.26272  0.24685  Biso   1.000  Hf
  Hf3      1.0000 0.36707  0.48383  0.75167  Biso   1.000  Hf
  O1       1.0000 0.03555  0.18208  0.37439  Biso   1.000  O
  O2       1.0000 0.03526  0.06509  0.90395  Biso   1.000  O
  O3       1.0000 0.46388  0.43227  0.38606  Biso   1.000  O
  O4       1.0000 0.46165  0.31522  0.88741  Biso   1.000  O
  O5       1.0000 0.25522  0.10304  0.48392  Biso   1.000  O
  O6       1.0000 0.26171  0.13327  0.99611  Biso   1.000  O
  O7       1.0000 0.22776  0.38211  0.99517  Biso   1.000  O
  O8       1.0000 0.23092  0.36200  0.49599  Biso   1.000  O
  Hf4      1.0000 0.13525  0.51440  0.25243  Biso   1.000  Hf
  Hf5      1.0000 0.13506  0.73314  0.76499  Biso   1.000  Hf
  Hf6      1.0000 0.36569  0.76705  0.26354  Biso   1.000  Hf
  Hf7      1.0000 0.35717  0.98094  0.76143  Biso   1.000  Hf
  O9       1.0000 0.03817  0.68491  0.39335  Biso   1.000  O
  O10      1.0000 0.03314  0.56472  0.89747  Biso   1.000  O
  O11      1.0000 0.47143  0.93121  0.41121  Biso   1.000  O
  O12      1.0000 0.46590  0.82083  0.90804  Biso   1.000  O
  O13      1.0000 0.26852  0.60921  0.50364  Biso   1.000  O
  O14      1.0000 0.27157  0.63397  0.00459  Biso   1.000  O
  O15      1.0000 0.22162  0.89288  0.04410  Biso   1.000  O
  O16      1.0000 0.24728  0.84979  0.54431  Biso   1.000  O
  Hf8      1.0000 0.63059  0.01475  0.24352  Biso   1.000  Hf
  Hf9      1.0000 0.63219  0.23260  0.74887  Biso   1.000  Hf
  Hf10     1.0000 0.86421  0.26601  0.24353  Biso   1.000  Hf
  Hf11     1.0000 0.86440  0.48442  0.74854  Biso   1.000  Hf
  O17      1.0000 0.53192  0.18269  0.39361  Biso   1.000  O
  O18      1.0000 0.53043  0.06933  0.89794  Biso   1.000  O
  O19      1.0000 0.96483  0.43094  0.38847  Biso   1.000  O
  O20      1.0000 0.96108  0.31328  0.87642  Biso   1.000  O
  O21      1.0000 0.76911  0.11622  0.48782  Biso   1.000  O
  O22      1.0000 0.77032  0.13300  0.98724  Biso   1.000  O
  O23      1.0000 0.72858  0.38302  0.99802  Biso   1.000  O
  O24      1.0000 0.72764  0.36700  0.49636  Biso   1.000  O
  Hf12     1.0000 0.63409  0.51817  0.25382  Biso   1.000  Hf
  Hf13     1.0000 0.63460  0.73689  0.75191  Biso   1.000  Hf
  Hf14     1.0000 0.87566  0.76713  0.24054  Biso   1.000  Hf
  Hf15     1.0000 0.86794  0.98737  0.73956  Biso   1.000  Hf
  O25      1.0000 0.53577  0.68380  0.39903  Biso   1.000  O
  O26      1.0000 0.53754  0.56765  0.89033  Biso   1.000  O
  O27      1.0000 0.99299  0.94429  0.37757  Biso   1.000  O
  O28      1.0000 0.96223  0.81892  0.87613  Biso   1.000  O
  O29      1.0000 0.77241  0.61723  0.49889  Biso   1.000  O
  O30      1.0000 0.77038  0.63623  0.00066  Biso   1.000  O
  O31      1.0000 0.73199  0.88614  0.98979  Biso   1.000  O
  O32      1.0000 0.74318  0.86710  0.48870  Biso   1.000  O
