data_image0
_cell_length_a       10.1185
_cell_length_b       10.0046
_cell_length_c       4.99672
_cell_angle_alpha    89.9986
_cell_angle_beta     90.0005
_cell_angle_gamma    89.9994

_symmetry_space_group_name_H-M    "P 1"
_symmetry_int_tables_number       1

loop_
  _symmetry_equiv_pos_as_xyz
  'x, y, z'

loop_
  _atom_site_label
  _atom_site_occupancy
  _atom_site_fract_x
  _atom_site_fract_y
  _atom_site_fract_z
  _atom_site_thermal_displace_type
  _atom_site_B_iso_or_equiv
  _atom_site_type_symbol
  Fe1      1.0000 0.12487  0.00005  0.24996  Biso   1.000  Fe
  Hf1      1.0000 0.12491  0.24867  0.75001  Biso   1.000  Hf
  Hf2      1.0000 0.37342  0.24821  0.26169  Biso   1.000  Hf
  Hf3      1.0000 0.37714  0.00005  0.74998  Biso   1.000  Hf
  O1       1.0000 0.97214  0.14814  0.94012  Biso   1.000  O
  O2       1.0000 0.02779  0.10452  0.45265  Biso   1.000  O
  O3       1.0000 0.98242  0.35599  0.51443  Biso   1.000  O
  O4       1.0000 0.01604  0.38918  0.00334  Biso   1.000  O
  O5       1.0000 0.27770  0.14818  0.55992  Biso   1.000  O
  O6       1.0000 0.22203  0.10451  0.04737  Biso   1.000  O
  O7       1.0000 0.26738  0.35601  0.98559  Biso   1.000  O
  O8       1.0000 0.23376  0.38921  0.49669  Biso   1.000  O
  Hf4      1.0000 0.12491  0.50005  0.24996  Biso   1.000  Hf
  Hf5      1.0000 0.12491  0.75142  0.74994  Biso   1.000  Hf
  Hf6      1.0000 0.37341  0.75189  0.23825  Biso   1.000  Hf
  Hf7      1.0000 0.37384  0.50005  0.74996  Biso   1.000  Hf
  O9       1.0000 0.98243  0.64408  0.98554  Biso   1.000  O
  O10      1.0000 0.01604  0.61089  0.49663  Biso   1.000  O
  O11      1.0000 0.97213  0.85192  0.55985  Biso   1.000  O
  O12      1.0000 0.02779  0.89556  0.04731  Biso   1.000  O
  O13      1.0000 0.26738  0.64410  0.51438  Biso   1.000  O
  O14      1.0000 0.23377  0.61090  0.00329  Biso   1.000  O
  O15      1.0000 0.27769  0.85192  0.94000  Biso   1.000  O
  O16      1.0000 0.22201  0.89558  0.45255  Biso   1.000  O
  Hf8      1.0000 0.62491  0.00006  0.24997  Biso   1.000  Hf
  Hf9      1.0000 0.62491  0.25293  0.74997  Biso   1.000  Hf
  Hf10     1.0000 0.87640  0.24822  0.23828  Biso   1.000  Hf
  Hf11     1.0000 0.87269  0.00004  0.74997  Biso   1.000  Hf
  O17      1.0000 0.47601  0.13067  0.99882  Biso   1.000  O
  O18      1.0000 0.52236  0.11980  0.50133  Biso   1.000  O
  O19      1.0000 0.48255  0.36897  0.50646  Biso   1.000  O
  O20      1.0000 0.51674  0.38119  0.00084  Biso   1.000  O
  O21      1.0000 0.77381  0.13065  0.50111  Biso   1.000  O
  O22      1.0000 0.72746  0.11979  0.99859  Biso   1.000  O
  O23      1.0000 0.76726  0.36896  0.99344  Biso   1.000  O
  O24      1.0000 0.73307  0.38118  0.49904  Biso   1.000  O
  Hf12     1.0000 0.62490  0.50006  0.24996  Biso   1.000  Hf
  Hf13     1.0000 0.62490  0.74718  0.74996  Biso   1.000  Hf
  Hf14     1.0000 0.87639  0.75188  0.26165  Biso   1.000  Hf
  Hf15     1.0000 0.87598  0.50005  0.74996  Biso   1.000  Hf
  O25      1.0000 0.48256  0.63113  0.99348  Biso   1.000  O
  O26      1.0000 0.51674  0.61890  0.49909  Biso   1.000  O
  O27      1.0000 0.47600  0.86942  0.50114  Biso   1.000  O
  O28      1.0000 0.52235  0.88030  0.99862  Biso   1.000  O
  O29      1.0000 0.76725  0.63112  0.50644  Biso   1.000  O
  O30      1.0000 0.73307  0.61890  0.00083  Biso   1.000  O
  O31      1.0000 0.77381  0.86942  0.99877  Biso   1.000  O
  O32      1.0000 0.72746  0.88029  0.50130  Biso   1.000  O
