data_image0
_cell_length_a       10.0357
_cell_length_b       5.08478
_cell_length_c       10.4331
_cell_angle_alpha    90.0479
_cell_angle_beta     90.6534
_cell_angle_gamma    89.5567

_symmetry_space_group_name_H-M    "P 1"
_symmetry_int_tables_number       1

loop_
  _symmetry_equiv_pos_as_xyz
  'x, y, z'

loop_
  _atom_site_label
  _atom_site_occupancy
  _atom_site_fract_x
  _atom_site_fract_y
  _atom_site_fract_z
  _atom_site_thermal_displace_type
  _atom_site_B_iso_or_equiv
  _atom_site_type_symbol
  Ga1      1.0000 0.12490  0.02068  0.18324  Biso   1.000  Ga
  Hf1      1.0000 0.13791  0.45572  0.41669  Biso   1.000  Hf
  Hf2      1.0000 0.35351  0.54653  0.17015  Biso   1.000  Hf
  Hf3      1.0000 0.35663  0.96096  0.41789  Biso   1.000  Hf
  Hf4      1.0000 0.64053  0.03917  0.07790  Biso   1.000  Hf
  Hf5      1.0000 0.63654  0.45818  0.32721  Biso   1.000  Hf
  Hf6      1.0000 0.86836  0.53144  0.08181  Biso   1.000  Hf
  Hf7      1.0000 0.85804  0.95657  0.33042  Biso   1.000  Hf
  O1       1.0000 0.04559  0.31509  0.08789  Biso   1.000  O
  O2       1.0000 0.02946  0.16448  0.33694  Biso   1.000  O
  O3       1.0000 0.46945  0.82755  0.08297  Biso   1.000  O
  O4       1.0000 0.46457  0.66928  0.33401  Biso   1.000  O
  O5       1.0000 0.27134  0.24074  0.28611  Biso   1.000  O
  O6       1.0000 0.29797  0.29565  0.02775  Biso   1.000  O
  O7       1.0000 0.21794  0.74730  0.29523  Biso   1.000  O
  O8       1.0000 0.21899  0.78733  0.04990  Biso   1.000  O
  O9       1.0000 0.53220  0.33047  0.16489  Biso   1.000  O
  O10      1.0000 0.53072  0.16798  0.41382  Biso   1.000  O
  O11      1.0000 0.96561  0.82476  0.16977  Biso   1.000  O
  O12      1.0000 0.96433  0.66580  0.41732  Biso   1.000  O
  O13      1.0000 0.77373  0.24720  0.45578  Biso   1.000  O
  O14      1.0000 0.77635  0.24921  0.20520  Biso   1.000  O
  O15      1.0000 0.72158  0.74696  0.45610  Biso   1.000  O
  O16      1.0000 0.72443  0.74754  0.20557  Biso   1.000  O
  Hf8      1.0000 0.13902  0.04169  0.66995  Biso   1.000  Hf
  Hf9      1.0000 0.14399  0.45894  0.92347  Biso   1.000  Hf
  Hf10     1.0000 0.36031  0.54450  0.67097  Biso   1.000  Hf
  Hf11     1.0000 0.35889  0.96486  0.92448  Biso   1.000  Hf
  Hf12     1.0000 0.63709  0.04113  0.57863  Biso   1.000  Hf
  Hf13     1.0000 0.64040  0.45943  0.82937  Biso   1.000  Hf
  Hf14     1.0000 0.86001  0.53937  0.57985  Biso   1.000  Hf
  Hf15     1.0000 0.86368  0.95616  0.83105  Biso   1.000  Hf
  O17      1.0000 0.03268  0.32980  0.58333  Biso   1.000  O
  O18      1.0000 0.03453  0.17163  0.83456  Biso   1.000  O
  O19      1.0000 0.46538  0.83424  0.58351  Biso   1.000  O
  O20      1.0000 0.46921  0.67448  0.83287  Biso   1.000  O
  O21      1.0000 0.27581  0.24617  0.78877  Biso   1.000  O
  O22      1.0000 0.27588  0.25522  0.54066  Biso   1.000  O
  O23      1.0000 0.22507  0.74777  0.79679  Biso   1.000  O
  O24      1.0000 0.22212  0.75364  0.54436  Biso   1.000  O
  O25      1.0000 0.53331  0.33471  0.66484  Biso   1.000  O
  O26      1.0000 0.53657  0.16545  0.91356  Biso   1.000  O
  O27      1.0000 0.96769  0.82724  0.66830  Biso   1.000  O
  O28      1.0000 0.96947  0.66664  0.92118  Biso   1.000  O
  O29      1.0000 0.77942  0.24332  0.95611  Biso   1.000  O
  O30      1.0000 0.77690  0.25132  0.70581  Biso   1.000  O
  O31      1.0000 0.72735  0.74267  0.95674  Biso   1.000  O
  O32      1.0000 0.72453  0.75302  0.70628  Biso   1.000  O
