data_image0
_cell_length_a       10.1237
_cell_length_b       5.10382
_cell_length_c       10.4532
_cell_angle_alpha    90.1565
_cell_angle_beta     80.5389
_cell_angle_gamma    89.6023

_symmetry_space_group_name_H-M    "P 1"
_symmetry_int_tables_number       1

loop_
  _symmetry_equiv_pos_as_xyz
  'x, y, z'

loop_
  _atom_site_label
  _atom_site_occupancy
  _atom_site_fract_x
  _atom_site_fract_y
  _atom_site_fract_z
  _atom_site_thermal_displace_type
  _atom_site_B_iso_or_equiv
  _atom_site_type_symbol
  Ga1      1.0000 0.12678  0.02526  0.15654  Biso   1.000  Ga
  Hf1      1.0000 0.13791  0.45099  0.39102  Biso   1.000  Hf
  Hf2      1.0000 0.35405  0.54309  0.10378  Biso   1.000  Hf
  Hf3      1.0000 0.35740  0.95717  0.34978  Biso   1.000  Hf
  O1       1.0000 0.04395  0.31913  0.07887  Biso   1.000  O
  O2       1.0000 0.03198  0.15871  0.33011  Biso   1.000  O
  O3       1.0000 0.46722  0.82812  0.17147  Biso   1.000  O
  O4       1.0000 0.46494  0.66858  0.42089  Biso   1.000  O
  O5       1.0000 0.26977  0.24057  0.23074  Biso   1.000  O
  O6       1.0000 0.27635  0.24453  0.48551  Biso   1.000  O
  O7       1.0000 0.22281  0.79491  0.01520  Biso   1.000  O
  O8       1.0000 0.22270  0.73168  0.26030  Biso   1.000  O
  Hf4      1.0000 0.13913  0.04143  0.64386  Biso   1.000  Hf
  Hf5      1.0000 0.14132  0.45850  0.89573  Biso   1.000  Hf
  Hf6      1.0000 0.35984  0.54555  0.60325  Biso   1.000  Hf
  Hf7      1.0000 0.35970  0.96856  0.85640  Biso   1.000  Hf
  O9       1.0000 0.03403  0.33130  0.57753  Biso   1.000  O
  O10      1.0000 0.03512  0.16934  0.82797  Biso   1.000  O
  O11      1.0000 0.46549  0.83492  0.67202  Biso   1.000  O
  O12      1.0000 0.46803  0.68030  0.92364  Biso   1.000  O
  O13      1.0000 0.27497  0.25703  0.73422  Biso   1.000  O
  O14      1.0000 0.29284  0.28394  0.97225  Biso   1.000  O
  O15      1.0000 0.22243  0.75775  0.50852  Biso   1.000  O
  O16      1.0000 0.22490  0.74446  0.76067  Biso   1.000  O
  Hf8      1.0000 0.63845  0.04026  0.14574  Biso   1.000  Hf
  Hf9      1.0000 0.63801  0.45676  0.39554  Biso   1.000  Hf
  Hf10     1.0000 0.86724  0.53393  0.10612  Biso   1.000  Hf
  Hf11     1.0000 0.85914  0.95464  0.35565  Biso   1.000  Hf
  O17      1.0000 0.53390  0.33453  0.07902  Biso   1.000  O
  O18      1.0000 0.53259  0.16685  0.32768  Biso   1.000  O
  O19      1.0000 0.96624  0.82711  0.17431  Biso   1.000  O
  O20      1.0000 0.96345  0.66108  0.42245  Biso   1.000  O
  O21      1.0000 0.77583  0.25316  0.24131  Biso   1.000  O
  O22      1.0000 0.77509  0.24115  0.49188  Biso   1.000  O
  O23      1.0000 0.72668  0.75479  0.01149  Biso   1.000  O
  O24      1.0000 0.72485  0.73814  0.26020  Biso   1.000  O
  Hf12     1.0000 0.63872  0.04283  0.64715  Biso   1.000  Hf
  Hf13     1.0000 0.63923  0.46143  0.89850  Biso   1.000  Hf
  Hf14     1.0000 0.86031  0.54037  0.60553  Biso   1.000  Hf
  Hf15     1.0000 0.86248  0.95700  0.85624  Biso   1.000  Hf
  O25      1.0000 0.53356  0.33391  0.57817  Biso   1.000  O
  O26      1.0000 0.53645  0.17097  0.82809  Biso   1.000  O
  O27      1.0000 0.96608  0.83033  0.67322  Biso   1.000  O
  O28      1.0000 0.96687  0.66607  0.92555  Biso   1.000  O
  O29      1.0000 0.77732  0.25807  0.74162  Biso   1.000  O
  O30      1.0000 0.77715  0.24084  0.99156  Biso   1.000  O
  O31      1.0000 0.72220  0.75558  0.51125  Biso   1.000  O
  O32      1.0000 0.72452  0.74438  0.76145  Biso   1.000  O
