data_image0
_cell_length_a       10.0091
_cell_length_b       10.201
_cell_length_c       10.4401
_cell_angle_alpha    90.0695
_cell_angle_beta     90.4608
_cell_angle_gamma    89.6983

_symmetry_space_group_name_H-M    "P 1"
_symmetry_int_tables_number       1

loop_
  _symmetry_equiv_pos_as_xyz
  'x, y, z'

loop_
  _atom_site_label
  _atom_site_occupancy
  _atom_site_fract_x
  _atom_site_fract_y
  _atom_site_fract_z
  _atom_site_thermal_displace_type
  _atom_site_B_iso_or_equiv
  _atom_site_type_symbol
  Ge1      1.0000 0.12081  0.00978  0.18686  Biso   1.000  Ge
  Hf1      1.0000 0.13772  0.22904  0.41581  Biso   1.000  Hf
  Hf2      1.0000 0.35899  0.27013  0.16750  Biso   1.000  Hf
  Hf3      1.0000 0.36028  0.47889  0.42097  Biso   1.000  Hf
  Hf4      1.0000 0.63972  0.02169  0.07754  Biso   1.000  Hf
  Hf5      1.0000 0.63767  0.22910  0.32818  Biso   1.000  Hf
  Hf6      1.0000 0.86920  0.26562  0.08271  Biso   1.000  Hf
  Hf7      1.0000 0.86053  0.47843  0.32957  Biso   1.000  Hf
  O1       1.0000 0.05197  0.15129  0.08977  Biso   1.000  O
  O2       1.0000 0.03282  0.07833  0.33325  Biso   1.000  O
  O3       1.0000 0.46639  0.41780  0.08494  Biso   1.000  O
  O4       1.0000 0.46478  0.33115  0.33589  Biso   1.000  O
  O5       1.0000 0.26670  0.11571  0.27793  Biso   1.000  O
  O6       1.0000 0.30228  0.14686  0.02407  Biso   1.000  O
  O7       1.0000 0.22315  0.37323  0.29451  Biso   1.000  O
  O8       1.0000 0.22102  0.38389  0.04434  Biso   1.000  O
  O9       1.0000 0.53576  0.16778  0.16410  Biso   1.000  O
  O10      1.0000 0.53200  0.08197  0.41292  Biso   1.000  O
  O11      1.0000 0.96930  0.41350  0.16859  Biso   1.000  O
  O12      1.0000 0.96497  0.33213  0.41604  Biso   1.000  O
  O13      1.0000 0.77503  0.12261  0.45621  Biso   1.000  O
  O14      1.0000 0.77869  0.12462  0.20609  Biso   1.000  O
  O15      1.0000 0.72314  0.37335  0.45657  Biso   1.000  O
  O16      1.0000 0.72616  0.37387  0.20568  Biso   1.000  O
  Hf8      1.0000 0.13735  0.02084  0.66820  Biso   1.000  Hf
  Hf9      1.0000 0.14579  0.22534  0.92091  Biso   1.000  Hf
  Hf10     1.0000 0.36107  0.27179  0.66948  Biso   1.000  Hf
  Hf11     1.0000 0.36162  0.47971  0.92142  Biso   1.000  Hf
  Hf12     1.0000 0.63624  0.02080  0.57928  Biso   1.000  Hf
  Hf13     1.0000 0.64002  0.22971  0.82953  Biso   1.000  Hf
  Hf14     1.0000 0.86120  0.27042  0.57989  Biso   1.000  Hf
  Hf15     1.0000 0.86434  0.47656  0.83248  Biso   1.000  Hf
  O17      1.0000 0.03313  0.16422  0.57962  Biso   1.000  O
  O18      1.0000 0.03431  0.08534  0.83153  Biso   1.000  O
  O19      1.0000 0.46575  0.41810  0.58474  Biso   1.000  O
  O20      1.0000 0.46785  0.33488  0.83335  Biso   1.000  O
  O21      1.0000 0.27653  0.12173  0.78549  Biso   1.000  O
  O22      1.0000 0.27656  0.12852  0.53659  Biso   1.000  O
  O23      1.0000 0.22513  0.37293  0.79488  Biso   1.000  O
  O24      1.0000 0.22176  0.37634  0.54352  Biso   1.000  O
  O25      1.0000 0.53432  0.16877  0.66372  Biso   1.000  O
  O26      1.0000 0.53931  0.08019  0.91102  Biso   1.000  O
  O27      1.0000 0.96839  0.41306  0.66985  Biso   1.000  O
  O28      1.0000 0.97119  0.33088  0.92311  Biso   1.000  O
  O29      1.0000 0.78065  0.12302  0.95702  Biso   1.000  O
  O30      1.0000 0.77686  0.12655  0.70537  Biso   1.000  O
  O31      1.0000 0.72796  0.37143  0.95848  Biso   1.000  O
  O32      1.0000 0.72486  0.37667  0.70731  Biso   1.000  O
  Hf16     1.0000 0.13918  0.52298  0.17139  Biso   1.000  Hf
  Hf17     1.0000 0.13634  0.72835  0.42218  Biso   1.000  Hf
  Hf18     1.0000 0.35813  0.77687  0.17056  Biso   1.000  Hf
  Hf19     1.0000 0.35835  0.98044  0.41870  Biso   1.000  Hf
  Hf20     1.0000 0.63897  0.52021  0.07902  Biso   1.000  Hf
  Hf21     1.0000 0.63596  0.72736  0.32839  Biso   1.000  Hf
  Hf22     1.0000 0.86073  0.77057  0.07951  Biso   1.000  Hf
  Hf23     1.0000 0.85563  0.97729  0.33236  Biso   1.000  Hf
  O33      1.0000 0.03394  0.66747  0.08510  Biso   1.000  O
  O34      1.0000 0.03254  0.58296  0.33527  Biso   1.000  O
  O35      1.0000 0.46742  0.91647  0.08274  Biso   1.000  O
  O36      1.0000 0.46170  0.83281  0.33473  Biso   1.000  O
  O37      1.0000 0.27539  0.62604  0.29445  Biso   1.000  O
  O38      1.0000 0.27781  0.63541  0.04327  Biso   1.000  O
  O39      1.0000 0.21361  0.87658  0.29247  Biso   1.000  O
  O40      1.0000 0.21521  0.89783  0.05298  Biso   1.000  O
  O41      1.0000 0.53182  0.66782  0.16479  Biso   1.000  O
  O42      1.0000 0.53283  0.58257  0.41492  Biso   1.000  O
  O43      1.0000 0.96648  0.91561  0.16942  Biso   1.000  O
  O44      1.0000 0.96320  0.83254  0.41784  Biso   1.000  O
  O45      1.0000 0.77547  0.62287  0.45602  Biso   1.000  O
  O46      1.0000 0.77561  0.62546  0.20599  Biso   1.000  O
  O47      1.0000 0.71956  0.87214  0.45640  Biso   1.000  O
  O48      1.0000 0.72402  0.87569  0.20637  Biso   1.000  O
  Hf24     1.0000 0.13958  0.52075  0.67200  Biso   1.000  Hf
  Hf25     1.0000 0.13787  0.73246  0.92183  Biso   1.000  Hf
  Hf26     1.0000 0.36124  0.77187  0.67220  Biso   1.000  Hf
  Hf27     1.0000 0.36103  0.98323  0.92213  Biso   1.000  Hf
  Hf28     1.0000 0.63886  0.52065  0.57988  Biso   1.000  Hf
  Hf29     1.0000 0.63904  0.72913  0.82947  Biso   1.000  Hf
  Hf30     1.0000 0.85930  0.76965  0.58059  Biso   1.000  Hf
  Hf31     1.0000 0.86222  0.97990  0.82910  Biso   1.000  Hf
  O49      1.0000 0.03235  0.66463  0.58493  Biso   1.000  O
  O50      1.0000 0.03501  0.58510  0.83640  Biso   1.000  O
  O51      1.0000 0.46376  0.91819  0.58395  Biso   1.000  O
  O52      1.0000 0.46676  0.83392  0.83430  Biso   1.000  O
  O53      1.0000 0.27658  0.62404  0.79447  Biso   1.000  O
  O54      1.0000 0.27581  0.62620  0.54500  Biso   1.000  O
  O55      1.0000 0.22306  0.87390  0.79724  Biso   1.000  O
  O56      1.0000 0.22249  0.87646  0.54390  Biso   1.000  O
  O57      1.0000 0.53415  0.66766  0.66471  Biso   1.000  O
  O58      1.0000 0.53509  0.58277  0.91504  Biso   1.000  O
  O59      1.0000 0.96634  0.91435  0.66692  Biso   1.000  O
  O60      1.0000 0.96548  0.83490  0.91802  Biso   1.000  O
  O61      1.0000 0.77820  0.62268  0.95688  Biso   1.000  O
  O62      1.0000 0.77765  0.62500  0.70728  Biso   1.000  O
  O63      1.0000 0.72393  0.87306  0.95599  Biso   1.000  O
  O64      1.0000 0.72302  0.87658  0.70606  Biso   1.000  O
