data_image0
_cell_length_a       4.96264
_cell_length_b       10.3881
_cell_length_c       9.97632
_cell_angle_alpha    90.9574
_cell_angle_beta     89.1682
_cell_angle_gamma    90.33

_symmetry_space_group_name_H-M    "P 1"
_symmetry_int_tables_number       1

loop_
  _symmetry_equiv_pos_as_xyz
  'x, y, z'

loop_
  _atom_site_label
  _atom_site_occupancy
  _atom_site_fract_x
  _atom_site_fract_y
  _atom_site_fract_z
  _atom_site_thermal_displace_type
  _atom_site_B_iso_or_equiv
  _atom_site_type_symbol
  Ge1      1.0000 0.24015  0.03080  0.11103  Biso   1.000  Ge
  Hf1      1.0000 0.26894  0.22720  0.37280  Biso   1.000  Hf
  Hf2      1.0000 0.73216  0.26398  0.11919  Biso   1.000  Hf
  Hf3      1.0000 0.73731  0.48076  0.37536  Biso   1.000  Hf
  O1       1.0000 0.05901  0.17801  0.19344  Biso   1.000  O
  O2       1.0000 0.07209  0.06566  0.44866  Biso   1.000  O
  O3       1.0000 0.93440  0.42834  0.19452  Biso   1.000  O
  O4       1.0000 0.93276  0.31382  0.44257  Biso   1.000  O
  O5       1.0000 0.50577  0.09482  0.23765  Biso   1.000  O
  O6       1.0000 0.54774  0.13248  0.49200  Biso   1.000  O
  O7       1.0000 0.46049  0.38128  0.49778  Biso   1.000  O
  O8       1.0000 0.46444  0.35682  0.24653  Biso   1.000  O
  Hf4      1.0000 0.26309  0.01598  0.62408  Biso   1.000  Hf
  Hf5      1.0000 0.26288  0.23984  0.87098  Biso   1.000  Hf
  Hf6      1.0000 0.73225  0.26640  0.62204  Biso   1.000  Hf
  Hf7      1.0000 0.72860  0.48938  0.87345  Biso   1.000  Hf
  O9       1.0000 0.06831  0.18583  0.69490  Biso   1.000  O
  O10      1.0000 0.05419  0.07271  0.95373  Biso   1.000  O
  O11      1.0000 0.92790  0.43521  0.69359  Biso   1.000  O
  O12      1.0000 0.92172  0.32008  0.94127  Biso   1.000  O
  O13      1.0000 0.53700  0.11886  0.74670  Biso   1.000  O
  O14      1.0000 0.51681  0.13877  0.99635  Biso   1.000  O
  O15      1.0000 0.45713  0.38750  0.99612  Biso   1.000  O
  O16      1.0000 0.45773  0.37004  0.74689  Biso   1.000  O
  Hf8      1.0000 0.26928  0.51514  0.12727  Biso   1.000  Hf
  Hf9      1.0000 0.27975  0.73295  0.37834  Biso   1.000  Hf
  Hf10     1.0000 0.75161  0.76271  0.12481  Biso   1.000  Hf
  Hf11     1.0000 0.73930  0.98122  0.37020  Biso   1.000  Hf
  O17      1.0000 0.07793  0.68226  0.20048  Biso   1.000  O
  O18      1.0000 0.07631  0.56428  0.44556  Biso   1.000  O
  O19      1.0000 0.97944  0.93358  0.19272  Biso   1.000  O
  O20      1.0000 0.94569  0.81931  0.45299  Biso   1.000  O
  O21      1.0000 0.54511  0.60473  0.24885  Biso   1.000  O
  O22      1.0000 0.54779  0.63331  0.50104  Biso   1.000  O
  O23      1.0000 0.47035  0.88433  0.50456  Biso   1.000  O
  O24      1.0000 0.52044  0.84554  0.26286  Biso   1.000  O
  Hf12     1.0000 0.26968  0.51810  0.62440  Biso   1.000  Hf
  Hf13     1.0000 0.26004  0.73828  0.87992  Biso   1.000  Hf
  Hf14     1.0000 0.73629  0.76984  0.62854  Biso   1.000  Hf
  Hf15     1.0000 0.71529  0.98827  0.87980  Biso   1.000  Hf
  O25      1.0000 0.06934  0.68458  0.69950  Biso   1.000  O
  O26      1.0000 0.06038  0.57206  0.95120  Biso   1.000  O
  O27      1.0000 0.92777  0.93696  0.70139  Biso   1.000  O
  O28      1.0000 0.91027  0.82146  0.94110  Biso   1.000  O
  O29      1.0000 0.53587  0.62053  0.75151  Biso   1.000  O
  O30      1.0000 0.53183  0.63929  0.00057  Biso   1.000  O
  O31      1.0000 0.43768  0.89787  0.01681  Biso   1.000  O
  O32      1.0000 0.45474  0.86970  0.75675  Biso   1.000  O
