data_image0
_cell_length_a       10.1179
_cell_length_b       5.15743
_cell_length_c       10.4943
_cell_angle_alpha    89.8891
_cell_angle_beta     91.8121
_cell_angle_gamma    89.6885

_symmetry_space_group_name_H-M    "P 1"
_symmetry_int_tables_number       1

loop_
  _symmetry_equiv_pos_as_xyz
  'x, y, z'

loop_
  _atom_site_label
  _atom_site_occupancy
  _atom_site_fract_x
  _atom_site_fract_y
  _atom_site_fract_z
  _atom_site_thermal_displace_type
  _atom_site_B_iso_or_equiv
  _atom_site_type_symbol
  Hf1      1.0000 0.13144  0.03718  0.17722  Biso   1.000  Hf
  Hf2      1.0000 0.13785  0.45593  0.42709  Biso   1.000  Hf
  Hf3      1.0000 0.34772  0.53380  0.18520  Biso   1.000  Hf
  Hf4      1.0000 0.36336  0.95616  0.42742  Biso   1.000  Hf
  Hf5      1.0000 0.64891  0.04206  0.07467  Biso   1.000  Hf
  Hf6      1.0000 0.63815  0.46059  0.33057  Biso   1.000  Hf
  Hf7      1.0000 0.86170  0.54168  0.07699  Biso   1.000  Hf
  Hf8      1.0000 0.86033  0.95928  0.32961  Biso   1.000  Hf
  O1       1.0000 0.03223  0.33744  0.08923  Biso   1.000  O
  O2       1.0000 0.03012  0.16824  0.33932  Biso   1.000  O
  O3       1.0000 0.47181  0.86000  0.09658  Biso   1.000  O
  O4       1.0000 0.46563  0.67007  0.33753  Biso   1.000  O
  O5       1.0000 0.27015  0.24844  0.30204  Biso   1.000  O
  O6       1.0000 0.26278  0.22250  0.05427  Biso   1.000  O
  O7       1.0000 0.21894  0.75101  0.30547  Biso   1.000  O
  O8       1.0000 0.21744  0.74619  0.05750  Biso   1.000  O
  O9       1.0000 0.52532  0.31628  0.17962  Biso   1.000  O
  O10      1.0000 0.53198  0.17405  0.42080  Biso   1.000  O
  O11      1.0000 0.96026  0.83715  0.16724  Biso   1.000  O
  O12      1.0000 0.96719  0.66752  0.41714  Biso   1.000  O
  O13      1.0000 0.77646  0.25093  0.45336  Biso   1.000  O
  O14      1.0000 0.77413  0.25582  0.20295  Biso   1.000  O
  O15      1.0000 0.72680  0.75260  0.45504  Biso   1.000  O
  O16      1.0000 0.72225  0.74994  0.20493  Biso   1.000  O
  Hf9      1.0000 0.14533  0.04074  0.67550  Biso   1.000  Hf
  Hf10     1.0000 0.14397  0.45834  0.92812  Biso   1.000  Hf
  Hf11     1.0000 0.36752  0.53944  0.67454  Biso   1.000  Hf
  Hf12     1.0000 0.35674  0.95796  0.93044  Biso   1.000  Hf
  Hf13     1.0000 0.64231  0.04386  0.57770  Biso   1.000  Hf
  Hf14     1.0000 0.65795  0.46622  0.81991  Biso   1.000  Hf
  Hf15     1.0000 0.86782  0.54410  0.57803  Biso   1.000  Hf
  Hf16     1.0000 0.87423  0.96284  0.82789  Biso   1.000  Hf
  O17      1.0000 0.03847  0.33251  0.58797  Biso   1.000  O
  O18      1.0000 0.04541  0.16286  0.83788  Biso   1.000  O
  O19      1.0000 0.47369  0.82597  0.58430  Biso   1.000  O
  O20      1.0000 0.48034  0.68377  0.82548  Biso   1.000  O
  O21      1.0000 0.28342  0.25008  0.80019  Biso   1.000  O
  O22      1.0000 0.27887  0.24743  0.55007  Biso   1.000  O
  O23      1.0000 0.23154  0.74420  0.80216  Biso   1.000  O
  O24      1.0000 0.22921  0.74910  0.55176  Biso   1.000  O
  O25      1.0000 0.54004  0.32994  0.66759  Biso   1.000  O
  O26      1.0000 0.53386  0.14002  0.90855  Biso   1.000  O
  O27      1.0000 0.97555  0.83179  0.66579  Biso   1.000  O
  O28      1.0000 0.97344  0.66257  0.91587  Biso   1.000  O
  O29      1.0000 0.78822  0.25385  0.94761  Biso   1.000  O
  O30      1.0000 0.78673  0.24902  0.69965  Biso   1.000  O
  O31      1.0000 0.74289  0.77753  0.95085  Biso   1.000  O
  O32      1.0000 0.73552  0.75158  0.70307  Biso   1.000  O
  Ge1      1.0000 0.50283  0.50004  0.00255  Biso   1.000  Ge
