data_image0
_cell_length_a       9.93651
_cell_length_b       10.3777
_cell_length_c       9.98739
_cell_angle_alpha    90.4536
_cell_angle_beta     89.6337
_cell_angle_gamma    90.136

_symmetry_space_group_name_H-M    "P 1"
_symmetry_int_tables_number       1

loop_
  _symmetry_equiv_pos_as_xyz
  'x, y, z'

loop_
  _atom_site_label
  _atom_site_occupancy
  _atom_site_fract_x
  _atom_site_fract_y
  _atom_site_fract_z
  _atom_site_thermal_displace_type
  _atom_site_B_iso_or_equiv
  _atom_site_type_symbol
  Ge1      1.0000 0.12136  0.03143  0.11002  Biso   1.000  Ge
  Hf1      1.0000 0.13371  0.22878  0.37189  Biso   1.000  Hf
  Hf2      1.0000 0.36795  0.26446  0.12213  Biso   1.000  Hf
  Hf3      1.0000 0.36758  0.48152  0.37564  Biso   1.000  Hf
  O1       1.0000 0.03610  0.18195  0.18572  Biso   1.000  O
  O2       1.0000 0.03648  0.06602  0.44890  Biso   1.000  O
  O3       1.0000 0.46525  0.43248  0.19275  Biso   1.000  O
  O4       1.0000 0.46572  0.31625  0.44543  Biso   1.000  O
  O5       1.0000 0.25292  0.09629  0.24085  Biso   1.000  O
  O6       1.0000 0.27257  0.13259  0.49493  Biso   1.000  O
  O7       1.0000 0.22867  0.38089  0.49813  Biso   1.000  O
  O8       1.0000 0.23313  0.35861  0.24785  Biso   1.000  O
  Hf4      1.0000 0.13469  0.01766  0.62776  Biso   1.000  Hf
  Hf5      1.0000 0.13266  0.23878  0.87403  Biso   1.000  Hf
  Hf6      1.0000 0.36604  0.26674  0.62431  Biso   1.000  Hf
  Hf7      1.0000 0.36609  0.48692  0.87518  Biso   1.000  Hf
  O9       1.0000 0.03466  0.18499  0.69653  Biso   1.000  O
  O10      1.0000 0.03408  0.06713  0.94663  Biso   1.000  O
  O11      1.0000 0.46335  0.43505  0.69412  Biso   1.000  O
  O12      1.0000 0.46223  0.31713  0.94233  Biso   1.000  O
  O13      1.0000 0.27113  0.11973  0.74948  Biso   1.000  O
  O14      1.0000 0.26232  0.13678  0.99925  Biso   1.000  O
  O15      1.0000 0.22991  0.38575  0.99771  Biso   1.000  O
  O16      1.0000 0.22909  0.36949  0.74843  Biso   1.000  O
  Hf8      1.0000 0.13364  0.51440  0.12567  Biso   1.000  Hf
  Hf9      1.0000 0.13617  0.73079  0.37846  Biso   1.000  Hf
  Hf10     1.0000 0.36712  0.76391  0.12865  Biso   1.000  Hf
  Hf11     1.0000 0.36350  0.97933  0.37377  Biso   1.000  Hf
  O17      1.0000 0.03768  0.68292  0.19562  Biso   1.000  O
  O18      1.0000 0.03605  0.56307  0.44637  Biso   1.000  O
  O19      1.0000 0.47107  0.93046  0.19766  Biso   1.000  O
  O20      1.0000 0.46932  0.81782  0.45316  Biso   1.000  O
  O21      1.0000 0.26952  0.60658  0.24921  Biso   1.000  O
  O22      1.0000 0.27334  0.63176  0.50117  Biso   1.000  O
  O23      1.0000 0.22964  0.88199  0.50718  Biso   1.000  O
  O24      1.0000 0.24873  0.84709  0.26532  Biso   1.000  O
  Hf12     1.0000 0.13495  0.51668  0.62566  Biso   1.000  Hf
  Hf13     1.0000 0.13207  0.73558  0.87884  Biso   1.000  Hf
  Hf14     1.0000 0.36598  0.76876  0.62991  Biso   1.000  Hf
  Hf15     1.0000 0.36148  0.98688  0.88223  Biso   1.000  Hf
  O25      1.0000 0.03652  0.68515  0.69602  Biso   1.000  O
  O26      1.0000 0.03373  0.56759  0.94610  Biso   1.000  O
  O27      1.0000 0.46282  0.93596  0.70020  Biso   1.000  O
  O28      1.0000 0.45753  0.81859  0.94415  Biso   1.000  O
  O29      1.0000 0.26943  0.61939  0.75143  Biso   1.000  O
  O30      1.0000 0.26770  0.63644  0.00033  Biso   1.000  O
  O31      1.0000 0.22137  0.89592  0.01905  Biso   1.000  O
  O32      1.0000 0.22809  0.87024  0.75873  Biso   1.000  O
  Hf16     1.0000 0.63457  0.01674  0.12635  Biso   1.000  Hf
  Hf17     1.0000 0.63465  0.23196  0.37715  Biso   1.000  Hf
  Hf18     1.0000 0.86409  0.26718  0.12379  Biso   1.000  Hf
  Hf19     1.0000 0.86624  0.48296  0.37604  Biso   1.000  Hf
  O33      1.0000 0.53166  0.18184  0.19907  Biso   1.000  O
  O34      1.0000 0.53642  0.06501  0.44363  Biso   1.000  O
  O35      1.0000 0.96526  0.43115  0.19584  Biso   1.000  O
  O36      1.0000 0.96351  0.31268  0.44091  Biso   1.000  O
  O37      1.0000 0.77171  0.11734  0.24801  Biso   1.000  O
  O38      1.0000 0.77176  0.13169  0.49813  Biso   1.000  O
  O39      1.0000 0.73045  0.38228  0.49994  Biso   1.000  O
  O40      1.0000 0.72836  0.36687  0.24940  Biso   1.000  O
  Hf20     1.0000 0.63103  0.01492  0.62308  Biso   1.000  Hf
  Hf21     1.0000 0.63308  0.23432  0.87373  Biso   1.000  Hf
  Hf22     1.0000 0.86592  0.26609  0.62426  Biso   1.000  Hf
  Hf23     1.0000 0.86433  0.48574  0.87461  Biso   1.000  Hf
  O41      1.0000 0.53618  0.18517  0.69280  Biso   1.000  O
  O42      1.0000 0.53185  0.07005  0.94916  Biso   1.000  O
  O43      1.0000 0.96367  0.43455  0.69341  Biso   1.000  O
  O44      1.0000 0.96211  0.31824  0.94302  Biso   1.000  O
  O45      1.0000 0.76839  0.11696  0.74773  Biso   1.000  O
  O46      1.0000 0.76868  0.13406  0.99747  Biso   1.000  O
  O47      1.0000 0.72824  0.38383  0.99901  Biso   1.000  O
  O48      1.0000 0.72893  0.36816  0.74888  Biso   1.000  O
  Hf24     1.0000 0.63515  0.51759  0.12776  Biso   1.000  Hf
  Hf25     1.0000 0.63643  0.73533  0.37623  Biso   1.000  Hf
  Hf26     1.0000 0.87301  0.76702  0.12356  Biso   1.000  Hf
  Hf27     1.0000 0.87109  0.98489  0.37383  Biso   1.000  Hf
  O49      1.0000 0.53734  0.68418  0.19798  Biso   1.000  O
  O50      1.0000 0.53821  0.56610  0.44323  Biso   1.000  O
  O51      1.0000 0.98343  0.93791  0.18936  Biso   1.000  O
  O52      1.0000 0.96559  0.81635  0.44344  Biso   1.000  O
  O53      1.0000 0.77346  0.61682  0.24981  Biso   1.000  O
  O54      1.0000 0.77067  0.63344  0.50008  Biso   1.000  O
  O55      1.0000 0.73355  0.88406  0.49795  Biso   1.000  O
  O56      1.0000 0.74047  0.86754  0.24751  Biso   1.000  O
  Hf28     1.0000 0.63367  0.51755  0.62509  Biso   1.000  Hf
  Hf29     1.0000 0.63171  0.73551  0.87693  Biso   1.000  Hf
  Hf30     1.0000 0.86741  0.76726  0.62508  Biso   1.000  Hf
  Hf31     1.0000 0.86294  0.98472  0.87375  Biso   1.000  Hf
  O57      1.0000 0.53478  0.68378  0.69704  Biso   1.000  O
  O58      1.0000 0.53466  0.56861  0.94744  Biso   1.000  O
  O59      1.0000 0.96440  0.93505  0.69485  Biso   1.000  O
  O60      1.0000 0.96068  0.81761  0.94113  Biso   1.000  O
  O61      1.0000 0.76929  0.61874  0.75013  Biso   1.000  O
  O62      1.0000 0.76982  0.63520  0.00034  Biso   1.000  O
  O63      1.0000 0.72736  0.88425  0.99829  Biso   1.000  O
  O64      1.0000 0.72845  0.86728  0.74829  Biso   1.000  O
