data_image0
_cell_length_a       10.0188
_cell_length_b       5.10076
_cell_length_c       10.0188
_cell_angle_alpha    90.0003
_cell_angle_beta     90.0001
_cell_angle_gamma    90.0002

_symmetry_space_group_name_H-M    "P 1"
_symmetry_int_tables_number       1

loop_
  _symmetry_equiv_pos_as_xyz
  'x, y, z'

loop_
  _atom_site_label
  _atom_site_occupancy
  _atom_site_fract_x
  _atom_site_fract_y
  _atom_site_fract_z
  _atom_site_thermal_displace_type
  _atom_site_B_iso_or_equiv
  _atom_site_type_symbol
  Hf1      1.0000 0.12491  0.00011  0.12491  Biso   1.000  Hf
  Hf2      1.0000 0.12491  0.50011  0.37305  Biso   1.000  Hf
  Hf3      1.0000 0.37305  0.50011  0.12491  Biso   1.000  Hf
  Hf4      1.0000 0.37653  0.99959  0.37654  Biso   1.000  Hf
  O1       1.0000 0.99282  0.28996  0.99282  Biso   1.000  O
  O2       1.0000 0.00135  0.20379  0.24847  Biso   1.000  O
  O3       1.0000 0.99281  0.71026  0.25700  Biso   1.000  O
  O4       1.0000 0.00135  0.79643  0.00134  Biso   1.000  O
  O5       1.0000 0.25700  0.28996  0.25700  Biso   1.000  O
  O6       1.0000 0.24847  0.20379  0.00135  Biso   1.000  O
  O7       1.0000 0.25700  0.71025  0.99282  Biso   1.000  O
  O8       1.0000 0.24847  0.79643  0.24847  Biso   1.000  O
  Hf5      1.0000 0.12491  0.00011  0.62491  Biso   1.000  Hf
  Hf6      1.0000 0.12491  0.50010  0.87677  Biso   1.000  Hf
  Hf7      1.0000 0.37417  0.50011  0.62491  Biso   1.000  Hf
  Hf8      1.0000 0.37653  0.00062  0.87329  Biso   1.000  Hf
  O9       1.0000 0.99786  0.29706  0.49622  Biso   1.000  O
  O10      1.0000 0.00018  0.20389  0.74678  Biso   1.000  O
  O11      1.0000 0.99786  0.70316  0.75360  Biso   1.000  O
  O12      1.0000 0.00018  0.79632  0.50304  Biso   1.000  O
  O13      1.0000 0.25196  0.29706  0.75360  Biso   1.000  O
  O14      1.0000 0.24964  0.20389  0.50304  Biso   1.000  O
  O15      1.0000 0.25195  0.70316  0.49622  Biso   1.000  O
  O16      1.0000 0.24964  0.79632  0.74678  Biso   1.000  O
  Hf9      1.0000 0.62491  0.00011  0.12491  Biso   1.000  Hf
  Hf10     1.0000 0.62491  0.50011  0.37417  Biso   1.000  Hf
  Hf11     1.0000 0.87676  0.50011  0.12491  Biso   1.000  Hf
  Hf12     1.0000 0.87329  0.00062  0.37653  Biso   1.000  Hf
  O17      1.0000 0.49622  0.29706  0.99787  Biso   1.000  O
  O18      1.0000 0.50305  0.20389  0.24965  Biso   1.000  O
  O19      1.0000 0.49622  0.70316  0.25195  Biso   1.000  O
  O20      1.0000 0.50305  0.79633  0.00017  Biso   1.000  O
  O21      1.0000 0.75360  0.29706  0.25195  Biso   1.000  O
  O22      1.0000 0.74677  0.20389  0.00017  Biso   1.000  O
  O23      1.0000 0.75360  0.70316  0.99786  Biso   1.000  O
  O24      1.0000 0.74677  0.79633  0.24965  Biso   1.000  O
  Hf13     1.0000 0.62491  0.00011  0.62491  Biso   1.000  Hf
  Hf14     1.0000 0.62490  0.50010  0.87564  Biso   1.000  Hf
  Hf15     1.0000 0.87564  0.50011  0.62491  Biso   1.000  Hf
  Hf16     1.0000 0.87329  0.99959  0.87329  Biso   1.000  Hf
  O25      1.0000 0.49764  0.29431  0.49764  Biso   1.000  O
  O26      1.0000 0.50173  0.20713  0.74809  Biso   1.000  O
  O27      1.0000 0.49764  0.70591  0.75217  Biso   1.000  O
  O28      1.0000 0.50173  0.79308  0.50172  Biso   1.000  O
  O29      1.0000 0.75218  0.29431  0.75218  Biso   1.000  O
  O30      1.0000 0.74809  0.20713  0.50172  Biso   1.000  O
  O31      1.0000 0.75218  0.70591  0.49764  Biso   1.000  O
  O32      1.0000 0.74808  0.79308  0.74809  Biso   1.000  O
  H1       1.0000 0.12491  0.50010  0.12491  Biso   1.000  H
