data_image0
_cell_length_a       10.2624
_cell_length_b       5.17289
_cell_length_c       10.5614
_cell_angle_alpha    89.4665
_cell_angle_beta     79.127
_cell_angle_gamma    89.4056

_symmetry_space_group_name_H-M    "P 1"
_symmetry_int_tables_number       1

loop_
  _symmetry_equiv_pos_as_xyz
  'x, y, z'

loop_
  _atom_site_label
  _atom_site_occupancy
  _atom_site_fract_x
  _atom_site_fract_y
  _atom_site_fract_z
  _atom_site_thermal_displace_type
  _atom_site_B_iso_or_equiv
  _atom_site_type_symbol
  Hf1      1.0000 0.13595  0.03562  0.14458  Biso   1.000  Hf
  Hf2      1.0000 0.11798  0.44257  0.39777  Biso   1.000  Hf
  Hf3      1.0000 0.35348  0.53870  0.08907  Biso   1.000  Hf
  Hf4      1.0000 0.36081  0.97395  0.35369  Biso   1.000  Hf
  O1       1.0000 0.03061  0.31779  0.07071  Biso   1.000  O
  O2       1.0000 0.02428  0.16781  0.31936  Biso   1.000  O
  O3       1.0000 0.47513  0.79391  0.18861  Biso   1.000  O
  O4       1.0000 0.48959  0.73142  0.44244  Biso   1.000  O
  O5       1.0000 0.26965  0.24096  0.23469  Biso   1.000  O
  O6       1.0000 0.26875  0.24475  0.48976  Biso   1.000  O
  O7       1.0000 0.21844  0.76072  0.00242  Biso   1.000  O
  O8       1.0000 0.23121  0.72438  0.25672  Biso   1.000  O
  Hf5      1.0000 0.13968  0.03862  0.64369  Biso   1.000  Hf
  Hf6      1.0000 0.13508  0.45338  0.89133  Biso   1.000  Hf
  Hf7      1.0000 0.36772  0.55137  0.60915  Biso   1.000  Hf
  Hf8      1.0000 0.36004  0.96184  0.85215  Biso   1.000  Hf
  O9       1.0000 0.02601  0.32168  0.57849  Biso   1.000  O
  O10      1.0000 0.03189  0.17093  0.82168  Biso   1.000  O
  O11      1.0000 0.47133  0.82835  0.68326  Biso   1.000  O
  O12      1.0000 0.47154  0.69063  0.92752  Biso   1.000  O
  O13      1.0000 0.27349  0.25490  0.73887  Biso   1.000  O
  O14      1.0000 0.27183  0.24580  0.98588  Biso   1.000  O
  O15      1.0000 0.23801  0.73576  0.49910  Biso   1.000  O
  O16      1.0000 0.22339  0.74748  0.75697  Biso   1.000  O
  Hf9      1.0000 0.63812  0.03928  0.14778  Biso   1.000  Hf
  Hf10     1.0000 0.64822  0.47107  0.40264  Biso   1.000  Hf
  Hf11     1.0000 0.86186  0.54188  0.10492  Biso   1.000  Hf
  Hf12     1.0000 0.85652  0.95970  0.35505  Biso   1.000  Hf
  O17      1.0000 0.52588  0.31129  0.07626  Biso   1.000  O
  O18      1.0000 0.53397  0.18829  0.33003  Biso   1.000  O
  O19      1.0000 0.96829  0.81520  0.17533  Biso   1.000  O
  O20      1.0000 0.96167  0.68267  0.42852  Biso   1.000  O
  O21      1.0000 0.77418  0.25806  0.23903  Biso   1.000  O
  O22      1.0000 0.77952  0.24458  0.49402  Biso   1.000  O
  O23      1.0000 0.72419  0.75550  0.01382  Biso   1.000  O
  O24      1.0000 0.72764  0.74941  0.26220  Biso   1.000  O
  Hf13     1.0000 0.63824  0.04876  0.64954  Biso   1.000  Hf
  Hf14     1.0000 0.63716  0.45567  0.89966  Biso   1.000  Hf
  Hf15     1.0000 0.85916  0.54828  0.61017  Biso   1.000  Hf
  Hf16     1.0000 0.86119  0.95714  0.85496  Biso   1.000  Hf
  O25      1.0000 0.53409  0.32688  0.57583  Biso   1.000  O
  O26      1.0000 0.52857  0.18755  0.82617  Biso   1.000  O
  O27      1.0000 0.96928  0.82505  0.67477  Biso   1.000  O
  O28      1.0000 0.96480  0.66943  0.92317  Biso   1.000  O
  O29      1.0000 0.77246  0.25866  0.74366  Biso   1.000  O
  O30      1.0000 0.77291  0.24083  0.99144  Biso   1.000  O
  O31      1.0000 0.72522  0.76001  0.51659  Biso   1.000  O
  O32      1.0000 0.72598  0.74630  0.76514  Biso   1.000  O
  Hf17     1.0000 0.38629  0.48514  0.33637  Biso   1.000  Hf
