data_image0
_cell_length_a       10.0913
_cell_length_b       10.2946
_cell_length_c       10.4415
_cell_angle_alpha    89.7945
_cell_angle_beta     80.9135
_cell_angle_gamma    90.0088

_symmetry_space_group_name_H-M    "P 1"
_symmetry_int_tables_number       1

loop_
  _symmetry_equiv_pos_as_xyz
  'x, y, z'

loop_
  _atom_site_label
  _atom_site_occupancy
  _atom_site_fract_x
  _atom_site_fract_y
  _atom_site_fract_z
  _atom_site_thermal_displace_type
  _atom_site_B_iso_or_equiv
  _atom_site_type_symbol
  Hg1      1.0000 0.12637  0.01710  0.15992  Biso   1.000  Hg
  Hf1      1.0000 0.13547  0.23130  0.39927  Biso   1.000  Hf
  Hf2      1.0000 0.36004  0.26979  0.09952  Biso   1.000  Hf
  Hf3      1.0000 0.36022  0.47922  0.35264  Biso   1.000  Hf
  O1       1.0000 0.04226  0.17436  0.08282  Biso   1.000  O
  O2       1.0000 0.02552  0.07802  0.36897  Biso   1.000  O
  O3       1.0000 0.46242  0.41985  0.16840  Biso   1.000  O
  O4       1.0000 0.46239  0.33022  0.41834  Biso   1.000  O
  O5       1.0000 0.27094  0.12513  0.23635  Biso   1.000  O
  O6       1.0000 0.27744  0.12193  0.48568  Biso   1.000  O
  O7       1.0000 0.22358  0.38042  0.00756  Biso   1.000  O
  O8       1.0000 0.22383  0.36818  0.25805  Biso   1.000  O
  Hf4      1.0000 0.13787  0.02140  0.64157  Biso   1.000  Hf
  Hf5      1.0000 0.14329  0.22520  0.89241  Biso   1.000  Hf
  Hf6      1.0000 0.36020  0.27163  0.60309  Biso   1.000  Hf
  Hf7      1.0000 0.36172  0.47893  0.85345  Biso   1.000  Hf
  O9       1.0000 0.04155  0.18253  0.59241  Biso   1.000  O
  O10      1.0000 0.03938  0.07521  0.83186  Biso   1.000  O
  O11      1.0000 0.46369  0.41997  0.66857  Biso   1.000  O
  O12      1.0000 0.46764  0.33364  0.91966  Biso   1.000  O
  O13      1.0000 0.27639  0.12745  0.73429  Biso   1.000  O
  O14      1.0000 0.28936  0.13017  0.97597  Biso   1.000  O
  O15      1.0000 0.22270  0.38146  0.50859  Biso   1.000  O
  O16      1.0000 0.22454  0.36971  0.75838  Biso   1.000  O
  Hf8      1.0000 0.13942  0.52056  0.14446  Biso   1.000  Hf
  Hf9      1.0000 0.13565  0.72669  0.39565  Biso   1.000  Hf
  Hf10     1.0000 0.36272  0.77173  0.09810  Biso   1.000  Hf
  Hf11     1.0000 0.36150  0.97792  0.35211  Biso   1.000  Hf
  O17      1.0000 0.03943  0.67463  0.08334  Biso   1.000  O
  O18      1.0000 0.03776  0.57581  0.33141  Biso   1.000  O
  O19      1.0000 0.46405  0.91865  0.16960  Biso   1.000  O
  O20      1.0000 0.46421  0.82956  0.41716  Biso   1.000  O
  O21      1.0000 0.27666  0.63066  0.23956  Biso   1.000  O
  O22      1.0000 0.27613  0.62090  0.48971  Biso   1.000  O
  O23      1.0000 0.23262  0.87287  0.99708  Biso   1.000  O
  O24      1.0000 0.22047  0.86670  0.25405  Biso   1.000  O
  Hf12     1.0000 0.13943  0.52154  0.64654  Biso   1.000  Hf
  Hf13     1.0000 0.14187  0.73144  0.89395  Biso   1.000  Hf
  Hf14     1.0000 0.36100  0.77169  0.60213  Biso   1.000  Hf
  Hf15     1.0000 0.36010  0.97960  0.85245  Biso   1.000  Hf
  O25      1.0000 0.03737  0.67203  0.58223  Biso   1.000  O
  O26      1.0000 0.03959  0.57658  0.83340  Biso   1.000  O
  O27      1.0000 0.46384  0.91966  0.66769  Biso   1.000  O
  O28      1.0000 0.46984  0.83232  0.91691  Biso   1.000  O
  O29      1.0000 0.27795  0.63009  0.73949  Biso   1.000  O
  O30      1.0000 0.27770  0.61880  0.98952  Biso   1.000  O
  O31      1.0000 0.22385  0.87980  0.50434  Biso   1.000  O
  O32      1.0000 0.22211  0.87070  0.75298  Biso   1.000  O
  Hf16     1.0000 0.63974  0.02019  0.14592  Biso   1.000  Hf
  Hf17     1.0000 0.63678  0.22970  0.39756  Biso   1.000  Hf
  Hf18     1.0000 0.85964  0.27056  0.10675  Biso   1.000  Hf
  Hf19     1.0000 0.85988  0.47889  0.35484  Biso   1.000  Hf
  O33      1.0000 0.53710  0.16987  0.08129  Biso   1.000  O
  O34      1.0000 0.53568  0.07945  0.33059  Biso   1.000  O
  O35      1.0000 0.96248  0.42110  0.16894  Biso   1.000  O
  O36      1.0000 0.96102  0.33111  0.42208  Biso   1.000  O
  O37      1.0000 0.77600  0.12986  0.24460  Biso   1.000  O
  O38      1.0000 0.77223  0.12258  0.49599  Biso   1.000  O
  O39      1.0000 0.72495  0.37855  0.01087  Biso   1.000  O
  O40      1.0000 0.72284  0.37026  0.26006  Biso   1.000  O
  Hf20     1.0000 0.63745  0.02181  0.64816  Biso   1.000  Hf
  Hf21     1.0000 0.63949  0.22816  0.89671  Biso   1.000  Hf
  Hf22     1.0000 0.86102  0.27230  0.60749  Biso   1.000  Hf
  Hf23     1.0000 0.86439  0.47749  0.85568  Biso   1.000  Hf
  O41      1.0000 0.53415  0.17016  0.58096  Biso   1.000  O
  O42      1.0000 0.53829  0.07998  0.83035  Biso   1.000  O
  O43      1.0000 0.96231  0.42389  0.67046  Biso   1.000  O
  O44      1.0000 0.96471  0.32579  0.92253  Biso   1.000  O
  O45      1.0000 0.77819  0.12971  0.74283  Biso   1.000  O
  O46      1.0000 0.77777  0.11985  0.99275  Biso   1.000  O
  O47      1.0000 0.72187  0.37984  0.51020  Biso   1.000  O
  O48      1.0000 0.72437  0.37058  0.76066  Biso   1.000  O
  Hf24     1.0000 0.63711  0.51991  0.14540  Biso   1.000  Hf
  Hf25     1.0000 0.63899  0.72774  0.39507  Biso   1.000  Hf
  Hf26     1.0000 0.86088  0.76662  0.10147  Biso   1.000  Hf
  Hf27     1.0000 0.85686  0.98158  0.36386  Biso   1.000  Hf
  O49      1.0000 0.53794  0.66904  0.07813  Biso   1.000  O
  O50      1.0000 0.53640  0.57951  0.32984  Biso   1.000  O
  O51      1.0000 0.94875  0.92958  0.16925  Biso   1.000  O
  O52      1.0000 0.95936  0.82426  0.41628  Biso   1.000  O
  O53      1.0000 0.77624  0.62835  0.24036  Biso   1.000  O
  O54      1.0000 0.77662  0.62050  0.49084  Biso   1.000  O
  O55      1.0000 0.72417  0.87887  0.00905  Biso   1.000  O
  O56      1.0000 0.72642  0.86989  0.25814  Biso   1.000  O
  Hf28     1.0000 0.63869  0.52115  0.64617  Biso   1.000  Hf
  Hf29     1.0000 0.64046  0.72859  0.89429  Biso   1.000  Hf
  Hf30     1.0000 0.86077  0.77063  0.60480  Biso   1.000  Hf
  Hf31     1.0000 0.86258  0.97910  0.85455  Biso   1.000  Hf
  O57      1.0000 0.53673  0.66994  0.57902  Biso   1.000  O
  O58      1.0000 0.53679  0.58094  0.82894  Biso   1.000  O
  O59      1.0000 0.96152  0.92340  0.66556  Biso   1.000  O
  O60      1.0000 0.96291  0.82651  0.91734  Biso   1.000  O
  O61      1.0000 0.77810  0.62871  0.74107  Biso   1.000  O
  O62      1.0000 0.77873  0.61960  0.99112  Biso   1.000  O
  O63      1.0000 0.72151  0.87965  0.51065  Biso   1.000  O
  O64      1.0000 0.72503  0.87049  0.75890  Biso   1.000  O
