data_image0
_cell_length_a       10.1932
_cell_length_b       10.3138
_cell_length_c       5.26469
_cell_angle_alpha    90.3698
_cell_angle_beta     79.8605
_cell_angle_gamma    90.2418

_symmetry_space_group_name_H-M    "P 1"
_symmetry_int_tables_number       1

loop_
  _symmetry_equiv_pos_as_xyz
  'x, y, z'

loop_
  _atom_site_label
  _atom_site_occupancy
  _atom_site_fract_x
  _atom_site_fract_y
  _atom_site_fract_z
  _atom_site_thermal_displace_type
  _atom_site_B_iso_or_equiv
  _atom_site_type_symbol
  Hf1      1.0000 0.13328  0.01927  0.29958  Biso   1.000  Hf
  Hf2      1.0000 0.14022  0.23154  0.78806  Biso   1.000  Hf
  Hf3      1.0000 0.35658  0.27230  0.17251  Biso   1.000  Hf
  Hf4      1.0000 0.35179  0.48419  0.69884  Biso   1.000  Hf
  O1       1.0000 0.03523  0.17043  0.16186  Biso   1.000  O
  O2       1.0000 0.03441  0.08294  0.65859  Biso   1.000  O
  O3       1.0000 0.46374  0.41117  0.35352  Biso   1.000  O
  O4       1.0000 0.48855  0.36416  0.87110  Biso   1.000  O
  O5       1.0000 0.28222  0.12827  0.47892  Biso   1.000  O
  O6       1.0000 0.26199  0.11029  0.99455  Biso   1.000  O
  O7       1.0000 0.21881  0.38437  0.00766  Biso   1.000  O
  O8       1.0000 0.21050  0.37514  0.49787  Biso   1.000  O
  Hf5      1.0000 0.13546  0.52405  0.28994  Biso   1.000  Hf
  Hf6      1.0000 0.13424  0.73041  0.79887  Biso   1.000  Hf
  Hf7      1.0000 0.35997  0.77001  0.21253  Biso   1.000  Hf
  Hf8      1.0000 0.35900  0.97145  0.72013  Biso   1.000  Hf
  O9       1.0000 0.02864  0.66968  0.15876  Biso   1.000  O
  O10      1.0000 0.03259  0.58604  0.65756  Biso   1.000  O
  O11      1.0000 0.46379  0.91516  0.35014  Biso   1.000  O
  O12      1.0000 0.46188  0.82830  0.85127  Biso   1.000  O
  O13      1.0000 0.27283  0.63007  0.48351  Biso   1.000  O
  O14      1.0000 0.27051  0.62307  0.98501  Biso   1.000  O
  O15      1.0000 0.22161  0.87438  0.02903  Biso   1.000  O
  O16      1.0000 0.22139  0.87103  0.52662  Biso   1.000  O
  Hf9      1.0000 0.63707  0.02032  0.29374  Biso   1.000  Hf
  Hf10     1.0000 0.65242  0.23185  0.80472  Biso   1.000  Hf
  Hf11     1.0000 0.86466  0.27211  0.21582  Biso   1.000  Hf
  Hf12     1.0000 0.86299  0.47952  0.71253  Biso   1.000  Hf
  O17      1.0000 0.53093  0.16198  0.14391  Biso   1.000  O
  O18      1.0000 0.54464  0.06284  0.67923  Biso   1.000  O
  O19      1.0000 0.96269  0.42248  0.34159  Biso   1.000  O
  O20      1.0000 0.96477  0.33257  0.84218  Biso   1.000  O
  O21      1.0000 0.77608  0.12993  0.48535  Biso   1.000  O
  O22      1.0000 0.77985  0.11899  0.99016  Biso   1.000  O
  O23      1.0000 0.72851  0.37781  0.03128  Biso   1.000  O
  O24      1.0000 0.72778  0.37382  0.52768  Biso   1.000  O
  Hf13     1.0000 0.63782  0.52154  0.29621  Biso   1.000  Hf
  Hf14     1.0000 0.63551  0.72612  0.79256  Biso   1.000  Hf
  Hf15     1.0000 0.85658  0.77154  0.21004  Biso   1.000  Hf
  Hf16     1.0000 0.85904  0.97826  0.71113  Biso   1.000  Hf
  O25      1.0000 0.53075  0.66092  0.15192  Biso   1.000  O
  O26      1.0000 0.52796  0.58975  0.64385  Biso   1.000  O
  O27      1.0000 0.96135  0.91824  0.34327  Biso   1.000  O
  O28      1.0000 0.96173  0.83446  0.84583  Biso   1.000  O
  O29      1.0000 0.77299  0.62878  0.48243  Biso   1.000  O
  O30      1.0000 0.77243  0.62119  0.98204  Biso   1.000  O
  O31      1.0000 0.71996  0.87859  0.02303  Biso   1.000  O
  O32      1.0000 0.72264  0.87017  0.52178  Biso   1.000  O
  Ir1      1.0000 0.42983  0.23501  0.62944  Biso   1.000  Ir
