data_image0
_cell_length_a       10.1507
_cell_length_b       10.3002
_cell_length_c       10.5308
_cell_angle_alpha    89.918
_cell_angle_beta     79.7054
_cell_angle_gamma    90.0636

_symmetry_space_group_name_H-M    "P 1"
_symmetry_int_tables_number       1

loop_
  _symmetry_equiv_pos_as_xyz
  'x, y, z'

loop_
  _atom_site_label
  _atom_site_occupancy
  _atom_site_fract_x
  _atom_site_fract_y
  _atom_site_fract_z
  _atom_site_thermal_displace_type
  _atom_site_B_iso_or_equiv
  _atom_site_type_symbol
  Hf1      1.0000 0.13348  0.02051  0.14477  Biso   1.000  Hf
  Hf2      1.0000 0.13377  0.22599  0.39359  Biso   1.000  Hf
  Hf3      1.0000 0.34820  0.27321  0.08642  Biso   1.000  Hf
  Hf4      1.0000 0.35927  0.48866  0.35664  Biso   1.000  Hf
  O1       1.0000 0.03286  0.16753  0.07587  Biso   1.000  O
  O2       1.0000 0.02878  0.08188  0.32869  Biso   1.000  O
  O3       1.0000 0.45859  0.42731  0.16388  Biso   1.000  O
  O4       1.0000 0.47989  0.36191  0.44461  Biso   1.000  O
  O5       1.0000 0.26585  0.12474  0.23242  Biso   1.000  O
  O6       1.0000 0.28357  0.12423  0.48158  Biso   1.000  O
  O7       1.0000 0.21642  0.38291  0.00470  Biso   1.000  O
  O8       1.0000 0.22502  0.36909  0.25787  Biso   1.000  O
  Hf5      1.0000 0.14028  0.02216  0.64360  Biso   1.000  Hf
  Hf6      1.0000 0.13345  0.22808  0.89079  Biso   1.000  Hf
  Hf7      1.0000 0.36284  0.27774  0.60544  Biso   1.000  Hf
  Hf8      1.0000 0.35935  0.48195  0.85416  Biso   1.000  Hf
  O9       1.0000 0.03848  0.16858  0.57854  Biso   1.000  O
  O10      1.0000 0.03314  0.08219  0.82616  Biso   1.000  O
  O11      1.0000 0.46704  0.41609  0.68187  Biso   1.000  O
  O12      1.0000 0.46402  0.33398  0.91953  Biso   1.000  O
  O13      1.0000 0.27537  0.12870  0.73671  Biso   1.000  O
  O14      1.0000 0.27216  0.12331  0.98355  Biso   1.000  O
  O15      1.0000 0.22489  0.37997  0.50757  Biso   1.000  O
  O16      1.0000 0.22290  0.37231  0.75839  Biso   1.000  O
  Hf9      1.0000 0.13712  0.52268  0.14834  Biso   1.000  Hf
  Hf10     1.0000 0.13560  0.72916  0.39701  Biso   1.000  Hf
  Hf11     1.0000 0.35918  0.77312  0.10404  Biso   1.000  Hf
  Hf12     1.0000 0.36202  0.96808  0.35613  Biso   1.000  Hf
  O17      1.0000 0.03330  0.66672  0.07969  Biso   1.000  O
  O18      1.0000 0.03345  0.58188  0.32992  Biso   1.000  O
  O19      1.0000 0.46416  0.91717  0.17396  Biso   1.000  O
  O20      1.0000 0.46292  0.82536  0.42401  Biso   1.000  O
  O21      1.0000 0.27387  0.63070  0.24212  Biso   1.000  O
  O22      1.0000 0.27383  0.62422  0.49217  Biso   1.000  O
  O23      1.0000 0.22216  0.88031  0.00945  Biso   1.000  O
  O24      1.0000 0.22026  0.86972  0.26004  Biso   1.000  O
  Hf13     1.0000 0.13774  0.52202  0.64629  Biso   1.000  Hf
  Hf14     1.0000 0.13704  0.72858  0.89723  Biso   1.000  Hf
  Hf15     1.0000 0.36117  0.77056  0.60657  Biso   1.000  Hf
  Hf16     1.0000 0.35976  0.97859  0.85246  Biso   1.000  Hf
  O25      1.0000 0.03277  0.66710  0.57958  Biso   1.000  O
  O26      1.0000 0.03375  0.58332  0.82921  Biso   1.000  O
  O27      1.0000 0.46498  0.91695  0.67141  Biso   1.000  O
  O28      1.0000 0.46401  0.83489  0.92197  Biso   1.000  O
  O29      1.0000 0.27563  0.62823  0.74147  Biso   1.000  O
  O30      1.0000 0.27514  0.62350  0.99249  Biso   1.000  O
  O31      1.0000 0.22330  0.87859  0.51126  Biso   1.000  O
  O32      1.0000 0.22275  0.87062  0.76026  Biso   1.000  O
  Hf17     1.0000 0.64046  0.01779  0.14830  Biso   1.000  Hf
  Hf18     1.0000 0.65329  0.22782  0.40975  Biso   1.000  Hf
  Hf19     1.0000 0.85908  0.27188  0.10616  Biso   1.000  Hf
  Hf20     1.0000 0.85957  0.47820  0.35480  Biso   1.000  Hf
  O33      1.0000 0.52997  0.16270  0.07559  Biso   1.000  O
  O34      1.0000 0.55082  0.06124  0.34276  Biso   1.000  O
  O35      1.0000 0.96430  0.41675  0.17278  Biso   1.000  O
  O36      1.0000 0.96347  0.33162  0.42239  Biso   1.000  O
  O37      1.0000 0.77741  0.12922  0.24216  Biso   1.000  O
  O38      1.0000 0.78394  0.11853  0.49736  Biso   1.000  O
  O39      1.0000 0.72132  0.37805  0.01266  Biso   1.000  O
  O40      1.0000 0.71945  0.36961  0.26290  Biso   1.000  O
  Hf21     1.0000 0.63848  0.02139  0.64786  Biso   1.000  Hf
  Hf22     1.0000 0.63829  0.22664  0.89785  Biso   1.000  Hf
  Hf23     1.0000 0.86354  0.27194  0.60896  Biso   1.000  Hf
  Hf24     1.0000 0.85927  0.47917  0.85622  Biso   1.000  Hf
  O41      1.0000 0.53654  0.16930  0.58226  Biso   1.000  O
  O42      1.0000 0.53292  0.08342  0.82806  Biso   1.000  O
  O43      1.0000 0.96623  0.41747  0.67368  Biso   1.000  O
  O44      1.0000 0.96179  0.33255  0.92144  Biso   1.000  O
  O45      1.0000 0.77624  0.12891  0.74395  Biso   1.000  O
  O46      1.0000 0.77531  0.12078  0.99248  Biso   1.000  O
  O47      1.0000 0.72795  0.37895  0.51590  Biso   1.000  O
  O48      1.0000 0.72412  0.37144  0.76359  Biso   1.000  O
  Hf25     1.0000 0.63493  0.52273  0.14541  Biso   1.000  Hf
  Hf26     1.0000 0.63974  0.72647  0.39757  Biso   1.000  Hf
  Hf27     1.0000 0.85910  0.76961  0.10516  Biso   1.000  Hf
  Hf28     1.0000 0.85728  0.97588  0.35492  Biso   1.000  Hf
  O49      1.0000 0.53428  0.67179  0.07903  Biso   1.000  O
  O50      1.0000 0.53308  0.58826  0.32515  Biso   1.000  O
  O51      1.0000 0.96149  0.91501  0.17331  Biso   1.000  O
  O52      1.0000 0.96329  0.83215  0.42249  Biso   1.000  O
  O53      1.0000 0.77631  0.62635  0.24115  Biso   1.000  O
  O54      1.0000 0.77564  0.62013  0.49139  Biso   1.000  O
  O55      1.0000 0.72274  0.87825  0.01072  Biso   1.000  O
  O56      1.0000 0.72243  0.86670  0.25945  Biso   1.000  O
  Hf29     1.0000 0.63856  0.52190  0.64927  Biso   1.000  Hf
  Hf30     1.0000 0.63715  0.72980  0.89730  Biso   1.000  Hf
  Hf31     1.0000 0.86040  0.77219  0.60569  Biso   1.000  Hf
  Hf32     1.0000 0.86021  0.97781  0.85501  Biso   1.000  Hf
  O57      1.0000 0.53346  0.66468  0.58041  Biso   1.000  O
  O58      1.0000 0.53320  0.58531  0.83087  Biso   1.000  O
  O59      1.0000 0.96536  0.91730  0.67204  Biso   1.000  O
  O60      1.0000 0.96448  0.83292  0.92285  Biso   1.000  O
  O61      1.0000 0.77547  0.62934  0.74157  Biso   1.000  O
  O62      1.0000 0.77422  0.62094  0.99092  Biso   1.000  O
  O63      1.0000 0.72238  0.87728  0.51191  Biso   1.000  O
  O64      1.0000 0.72320  0.87201  0.76128  Biso   1.000  O
  K1       1.0000 0.44362  0.23467  0.28583  Biso   1.000  K
