data_image0
_cell_length_a       10.0859
_cell_length_b       5.18723
_cell_length_c       10.6922
_cell_angle_alpha    88.8145
_cell_angle_beta     91.5581
_cell_angle_gamma    90.532

_symmetry_space_group_name_H-M    "P 1"
_symmetry_int_tables_number       1

loop_
  _symmetry_equiv_pos_as_xyz
  'x, y, z'

loop_
  _atom_site_label
  _atom_site_occupancy
  _atom_site_fract_x
  _atom_site_fract_y
  _atom_site_fract_z
  _atom_site_thermal_displace_type
  _atom_site_B_iso_or_equiv
  _atom_site_type_symbol
  Hf1      1.0000 0.13792  0.04479  0.17634  Biso   1.000  Hf
  Hf2      1.0000 0.13734  0.44747  0.42658  Biso   1.000  Hf
  Hf3      1.0000 0.34772  0.55362  0.19111  Biso   1.000  Hf
  Hf4      1.0000 0.36090  0.94989  0.42819  Biso   1.000  Hf
  Hf5      1.0000 0.64461  0.07065  0.08728  Biso   1.000  Hf
  Hf6      1.0000 0.63822  0.45540  0.33451  Biso   1.000  Hf
  Hf7      1.0000 0.87095  0.54821  0.07819  Biso   1.000  Hf
  Hf8      1.0000 0.86125  0.95494  0.32717  Biso   1.000  Hf
  O1       1.0000 0.03209  0.31675  0.07945  Biso   1.000  O
  O2       1.0000 0.02979  0.17581  0.33280  Biso   1.000  O
  O3       1.0000 0.44867  0.88597  0.10991  Biso   1.000  O
  O4       1.0000 0.46554  0.66653  0.34154  Biso   1.000  O
  O5       1.0000 0.27028  0.24948  0.30217  Biso   1.000  O
  O6       1.0000 0.27428  0.26048  0.04985  Biso   1.000  O
  O7       1.0000 0.21844  0.75156  0.30707  Biso   1.000  O
  O8       1.0000 0.21355  0.75791  0.05518  Biso   1.000  O
  O9       1.0000 0.52172  0.32344  0.18784  Biso   1.000  O
  O10      1.0000 0.53143  0.16303  0.42037  Biso   1.000  O
  O11      1.0000 0.96811  0.82591  0.17668  Biso   1.000  O
  O12      1.0000 0.97124  0.67374  0.42373  Biso   1.000  O
  O13      1.0000 0.77678  0.24262  0.45137  Biso   1.000  O
  O14      1.0000 0.78167  0.25857  0.20790  Biso   1.000  O
  O15      1.0000 0.72867  0.74082  0.45557  Biso   1.000  O
  O16      1.0000 0.71862  0.74695  0.20805  Biso   1.000  O
  Hf9      1.0000 0.14421  0.03393  0.67643  Biso   1.000  Hf
  Hf10     1.0000 0.14335  0.46218  0.92433  Biso   1.000  Hf
  Hf11     1.0000 0.36158  0.53337  0.67346  Biso   1.000  Hf
  Hf12     1.0000 0.35474  0.96929  0.93371  Biso   1.000  Hf
  Hf13     1.0000 0.64305  0.01913  0.56872  Biso   1.000  Hf
  Hf14     1.0000 0.64556  0.42232  0.78565  Biso   1.000  Hf
  Hf15     1.0000 0.87211  0.53733  0.57702  Biso   1.000  Hf
  Hf16     1.0000 0.87185  0.96189  0.82953  Biso   1.000  Hf
  O17      1.0000 0.03527  0.31473  0.58257  Biso   1.000  O
  O18      1.0000 0.03681  0.17807  0.83106  Biso   1.000  O
  O19      1.0000 0.47507  0.79664  0.57578  Biso   1.000  O
  O20      1.0000 0.48205  0.65996  0.81435  Biso   1.000  O
  O21      1.0000 0.27606  0.25058  0.79763  Biso   1.000  O
  O22      1.0000 0.27567  0.23845  0.54749  Biso   1.000  O
  O23      1.0000 0.23013  0.74594  0.80244  Biso   1.000  O
  O24      1.0000 0.22600  0.74299  0.55308  Biso   1.000  O
  O25      1.0000 0.52294  0.27878  0.65864  Biso   1.000  O
  O26      1.0000 0.53155  0.15435  0.91993  Biso   1.000  O
  O27      1.0000 0.97576  0.81434  0.67426  Biso   1.000  O
  O28      1.0000 0.97588  0.67494  0.92019  Biso   1.000  O
  O29      1.0000 0.76852  0.30076  0.94212  Biso   1.000  O
  O30      1.0000 0.78532  0.21911  0.68889  Biso   1.000  O
  O31      1.0000 0.75359  0.82307  0.97202  Biso   1.000  O
  O32      1.0000 0.73546  0.73119  0.70283  Biso   1.000  O
  La1      1.0000 0.56651  0.57277  0.01432  Biso   1.000  La
