data_image0
_cell_length_a       9.99407
_cell_length_b       10.3096
_cell_length_c       5.00782
_cell_angle_alpha    90.1234
_cell_angle_beta     89.9715
_cell_angle_gamma    90.1165

_symmetry_space_group_name_H-M    "P 1"
_symmetry_int_tables_number       1

loop_
  _symmetry_equiv_pos_as_xyz
  'x, y, z'

loop_
  _atom_site_label
  _atom_site_occupancy
  _atom_site_fract_x
  _atom_site_fract_y
  _atom_site_fract_z
  _atom_site_thermal_displace_type
  _atom_site_B_iso_or_equiv
  _atom_site_type_symbol
  Mg1      1.0000 0.13057  0.01506  0.23936  Biso   1.000  Mg
  Hf1      1.0000 0.13574  0.51602  0.25238  Biso   1.000  Hf
  Hf2      1.0000 0.63269  0.01561  0.24568  Biso   1.000  Hf
  Hf3      1.0000 0.63370  0.51650  0.25152  Biso   1.000  Hf
  Hf4      1.0000 0.13405  0.22875  0.75157  Biso   1.000  Hf
  Hf5      1.0000 0.13774  0.73693  0.75725  Biso   1.000  Hf
  Hf6      1.0000 0.63319  0.23278  0.74849  Biso   1.000  Hf
  Hf7      1.0000 0.63429  0.73486  0.75000  Biso   1.000  Hf
  Hf8      1.0000 0.36327  0.26441  0.25377  Biso   1.000  Hf
  Hf9      1.0000 0.36336  0.76881  0.25456  Biso   1.000  Hf
  Hf10     1.0000 0.86561  0.26444  0.24990  Biso   1.000  Hf
  Hf11     1.0000 0.86705  0.76880  0.25016  Biso   1.000  Hf
  Hf12     1.0000 0.36482  0.48281  0.75248  Biso   1.000  Hf
  Hf13     1.0000 0.35942  0.98203  0.75456  Biso   1.000  Hf
  Hf14     1.0000 0.86525  0.48465  0.75260  Biso   1.000  Hf
  Hf15     1.0000 0.86902  0.98435  0.74399  Biso   1.000  Hf
  O1       1.0000 0.03061  0.18333  0.40046  Biso   1.000  O
  O2       1.0000 0.03519  0.68386  0.39137  Biso   1.000  O
  O3       1.0000 0.53711  0.18529  0.38330  Biso   1.000  O
  O4       1.0000 0.53476  0.68297  0.39183  Biso   1.000  O
  O5       1.0000 0.03201  0.06937  0.88639  Biso   1.000  O
  O6       1.0000 0.03528  0.56625  0.89273  Biso   1.000  O
  O7       1.0000 0.53509  0.06570  0.88527  Biso   1.000  O
  O8       1.0000 0.53531  0.56618  0.88965  Biso   1.000  O
  O9       1.0000 0.46437  0.43338  0.39127  Biso   1.000  O
  O10      1.0000 0.46623  0.93378  0.39374  Biso   1.000  O
  O11      1.0000 0.96514  0.43415  0.39113  Biso   1.000  O
  O12      1.0000 0.96711  0.93113  0.39347  Biso   1.000  O
  O13      1.0000 0.46474  0.31623  0.88928  Biso   1.000  O
  O14      1.0000 0.46732  0.81757  0.89636  Biso   1.000  O
  O15      1.0000 0.96570  0.31842  0.89356  Biso   1.000  O
  O16      1.0000 0.96395  0.81510  0.88703  Biso   1.000  O
  O17      1.0000 0.27575  0.12219  0.50523  Biso   1.000  O
  O18      1.0000 0.26987  0.61622  0.50059  Biso   1.000  O
  O19      1.0000 0.76860  0.11606  0.49390  Biso   1.000  O
  O20      1.0000 0.77100  0.61719  0.49710  Biso   1.000  O
  O21      1.0000 0.27372  0.13166  0.99835  Biso   1.000  O
  O22      1.0000 0.27187  0.63085  0.00080  Biso   1.000  O
  O23      1.0000 0.76983  0.13418  0.99371  Biso   1.000  O
  O24      1.0000 0.76959  0.63315  0.99752  Biso   1.000  O
  O25      1.0000 0.22972  0.38137  1.00000  Biso   1.000  O
  O26      1.0000 0.22903  0.87996  0.00672  Biso   1.000  O
  O27      1.0000 0.72898  0.38345  0.99670  Biso   1.000  O
  O28      1.0000 0.73147  0.88369  0.99405  Biso   1.000  O
  O29      1.0000 0.22772  0.36823  0.49927  Biso   1.000  O
  O30      1.0000 0.23536  0.86307  0.51009  Biso   1.000  O
  O31      1.0000 0.73047  0.36722  0.49745  Biso   1.000  O
  O32      1.0000 0.72800  0.86656  0.49302  Biso   1.000  O
