data_image0
_cell_length_a       10.0499
_cell_length_b       5.1141
_cell_length_c       10.3762
_cell_angle_alpha    89.8596
_cell_angle_beta     80.2955
_cell_angle_gamma    89.9678

_symmetry_space_group_name_H-M    "P 1"
_symmetry_int_tables_number       1

loop_
  _symmetry_equiv_pos_as_xyz
  'x, y, z'

loop_
  _atom_site_label
  _atom_site_occupancy
  _atom_site_fract_x
  _atom_site_fract_y
  _atom_site_fract_z
  _atom_site_thermal_displace_type
  _atom_site_B_iso_or_equiv
  _atom_site_type_symbol
  Mn1      1.0000 0.13630  0.04760  0.15073  Biso   1.000  Mn
  Hf1      1.0000 0.13926  0.04281  0.64569  Biso   1.000  Hf
  Hf2      1.0000 0.63878  0.04573  0.14527  Biso   1.000  Hf
  Hf3      1.0000 0.63782  0.04122  0.64679  Biso   1.000  Hf
  Hf4      1.0000 0.13959  0.46011  0.39169  Biso   1.000  Hf
  Hf5      1.0000 0.13960  0.45370  0.89968  Biso   1.000  Hf
  Hf6      1.0000 0.63971  0.45954  0.39514  Biso   1.000  Hf
  Hf7      1.0000 0.63695  0.45690  0.89810  Biso   1.000  Hf
  Hf8      1.0000 0.35474  0.54751  0.10595  Biso   1.000  Hf
  Hf9      1.0000 0.36117  0.54428  0.60434  Biso   1.000  Hf
  Hf10     1.0000 0.86918  0.54274  0.10524  Biso   1.000  Hf
  Hf11     1.0000 0.86003  0.54192  0.60384  Biso   1.000  Hf
  Hf12     1.0000 0.35919  0.95942  0.35144  Biso   1.000  Hf
  Hf13     1.0000 0.35685  0.95705  0.85805  Biso   1.000  Hf
  Hf14     1.0000 0.86445  0.96232  0.35121  Biso   1.000  Hf
  Hf15     1.0000 0.86074  0.95682  0.85532  Biso   1.000  Hf
  O1       1.0000 0.03959  0.32101  0.08471  Biso   1.000  O
  O2       1.0000 0.03363  0.32924  0.57376  Biso   1.000  O
  O3       1.0000 0.53479  0.34481  0.08337  Biso   1.000  O
  O4       1.0000 0.53826  0.34577  0.58247  Biso   1.000  O
  O5       1.0000 0.04155  0.16264  0.31632  Biso   1.000  O
  O6       1.0000 0.03498  0.16449  0.82896  Biso   1.000  O
  O7       1.0000 0.53681  0.15868  0.33188  Biso   1.000  O
  O8       1.0000 0.53587  0.15167  0.83545  Biso   1.000  O
  O9       1.0000 0.46473  0.83928  0.16815  Biso   1.000  O
  O10      1.0000 0.46146  0.84496  0.66870  Biso   1.000  O
  O11      1.0000 0.98075  0.84627  0.16480  Biso   1.000  O
  O12      1.0000 0.96498  0.83372  0.67040  Biso   1.000  O
  O13      1.0000 0.46339  0.65917  0.41708  Biso   1.000  O
  O14      1.0000 0.45580  0.64675  0.91714  Biso   1.000  O
  O15      1.0000 0.96385  0.66131  0.41708  Biso   1.000  O
  O16      1.0000 0.96543  0.65771  0.92156  Biso   1.000  O
  O17      1.0000 0.27194  0.25242  0.23739  Biso   1.000  O
  O18      1.0000 0.27771  0.25837  0.74329  Biso   1.000  O
  O19      1.0000 0.77785  0.26001  0.24046  Biso   1.000  O
  O20      1.0000 0.77607  0.25755  0.74174  Biso   1.000  O
  O21      1.0000 0.27761  0.24444  0.48973  Biso   1.000  O
  O22      1.0000 0.26984  0.23259  0.00079  Biso   1.000  O
  O23      1.0000 0.77855  0.24083  0.48952  Biso   1.000  O
  O24      1.0000 0.77826  0.24469  0.99184  Biso   1.000  O
  O25      1.0000 0.21692  0.76996  0.01416  Biso   1.000  O
  O26      1.0000 0.22233  0.75852  0.50789  Biso   1.000  O
  O27      1.0000 0.72412  0.75839  0.01003  Biso   1.000  O
  O28      1.0000 0.72324  0.75937  0.50897  Biso   1.000  O
  O29      1.0000 0.21938  0.75030  0.25627  Biso   1.000  O
  O30      1.0000 0.22183  0.74009  0.76019  Biso   1.000  O
  O31      1.0000 0.73209  0.74438  0.25727  Biso   1.000  O
  O32      1.0000 0.72205  0.74095  0.76016  Biso   1.000  O
