data_image0
_cell_length_a       10.1085
_cell_length_b       10.414
_cell_length_c       5.07477
_cell_angle_alpha    91.5093
_cell_angle_beta     87.4838
_cell_angle_gamma    88.2568

_symmetry_space_group_name_H-M    "P 1"
_symmetry_int_tables_number       1

loop_
  _symmetry_equiv_pos_as_xyz
  'x, y, z'

loop_
  _atom_site_label
  _atom_site_occupancy
  _atom_site_fract_x
  _atom_site_fract_y
  _atom_site_fract_z
  _atom_site_thermal_displace_type
  _atom_site_B_iso_or_equiv
  _atom_site_type_symbol
  Hf1      1.0000 0.12712  0.94804  0.27215  Biso   1.000  Hf
  Hf2      1.0000 0.11512  0.28853  0.76159  Biso   1.000  Hf
  Hf3      1.0000 0.36792  0.24144  0.30124  Biso   1.000  Hf
  Hf4      1.0000 0.37326  0.99862  0.77789  Biso   1.000  Hf
  O1       1.0000 0.98506  0.16046  0.93446  Biso   1.000  O
  O2       1.0000 0.97881  0.07210  0.44296  Biso   1.000  O
  O3       1.0000 0.98605  0.33840  0.47182  Biso   1.000  O
  O4       1.0000 0.98566  0.41952  0.99430  Biso   1.000  O
  O5       1.0000 0.24721  0.15152  0.58283  Biso   1.000  O
  O6       1.0000 0.26145  0.07268  0.08624  Biso   1.000  O
  O7       1.0000 0.23253  0.33021  0.06856  Biso   1.000  O
  O8       1.0000 0.25260  0.40342  0.53302  Biso   1.000  O
  Hf5      1.0000 0.12795  0.50016  0.24755  Biso   1.000  Hf
  Hf6      1.0000 0.13071  0.72932  0.77038  Biso   1.000  Hf
  Hf7      1.0000 0.39528  0.76047  0.27624  Biso   1.000  Hf
  Hf8      1.0000 0.39036  0.51279  0.70405  Biso   1.000  Hf
  O9       1.0000 0.02019  0.65795  0.08629  Biso   1.000  O
  O10      1.0000 0.03025  0.57848  0.58176  Biso   1.000  O
  O11      1.0000 0.00101  0.82852  0.51523  Biso   1.000  O
  O12      1.0000 0.00309  0.89089  0.98947  Biso   1.000  O
  O13      1.0000 0.26603  0.64515  0.47245  Biso   1.000  O
  O14      1.0000 0.24437  0.57501  0.95850  Biso   1.000  O
  O15      1.0000 0.25852  0.82396  0.02212  Biso   1.000  O
  O16      1.0000 0.25661  0.88812  0.54398  Biso   1.000  O
  Hf9      1.0000 0.63282  0.01848  0.23961  Biso   1.000  Hf
  Hf10     1.0000 0.60561  0.24582  0.74569  Biso   1.000  Hf
  Hf11     1.0000 0.85592  0.26995  0.19941  Biso   1.000  Hf
  Hf12     1.0000 0.88751  0.99586  0.74686  Biso   1.000  Hf
  O17      1.0000 0.49668  0.15057  0.01821  Biso   1.000  O
  O18      1.0000 0.49293  0.10479  0.52160  Biso   1.000  O
  O19      1.0000 0.50546  0.36288  0.47086  Biso   1.000  O
  O20      1.0000 0.48937  0.39922  0.96453  Biso   1.000  O
  O21      1.0000 0.72421  0.17615  0.43315  Biso   1.000  O
  O22      1.0000 0.74049  0.11106  0.94573  Biso   1.000  O
  O23      1.0000 0.73980  0.36443  0.92334  Biso   1.000  O
  O24      1.0000 0.75740  0.42982  0.41665  Biso   1.000  O
  Hf13     1.0000 0.61440  0.49836  0.19081  Biso   1.000  Hf
  Hf14     1.0000 0.63106  0.76385  0.76079  Biso   1.000  Hf
  Hf15     1.0000 0.86748  0.76340  0.24449  Biso   1.000  Hf
  Hf16     1.0000 0.86120  0.50411  0.71550  Biso   1.000  Hf
  O25      1.0000 0.50020  0.65067  0.97614  Biso   1.000  O
  O26      1.0000 0.52117  0.61695  0.47376  Biso   1.000  O
  O27      1.0000 0.50516  0.86068  0.53061  Biso   1.000  O
  O28      1.0000 0.50250  0.90274  0.02915  Biso   1.000  O
  O29      1.0000 0.77830  0.67023  0.54136  Biso   1.000  O
  O30      1.0000 0.75394  0.61591  0.01514  Biso   1.000  O
  O31      1.0000 0.75141  0.86714  0.99767  Biso   1.000  O
  O32      1.0000 0.75161  0.91674  0.49211  Biso   1.000  O
  Mo1      1.0000 0.11166  0.18984  0.26308  Biso   1.000  Mo
