data_image0
_cell_length_a       10.2598
_cell_length_b       10.2598
_cell_length_c       5.29534
_cell_angle_alpha    89.956
_cell_angle_beta     78.9047
_cell_angle_gamma    90.3724

_symmetry_space_group_name_H-M    "P 1"
_symmetry_int_tables_number       1

loop_
  _symmetry_equiv_pos_as_xyz
  'x, y, z'

loop_
  _atom_site_label
  _atom_site_occupancy
  _atom_site_fract_x
  _atom_site_fract_y
  _atom_site_fract_z
  _atom_site_thermal_displace_type
  _atom_site_B_iso_or_equiv
  _atom_site_type_symbol
  Hf1      1.0000 0.13761  0.02116  0.29210  Biso   1.000  Hf
  Hf2      1.0000 0.12787  0.22849  0.78745  Biso   1.000  Hf
  Hf3      1.0000 0.36653  0.27408  0.21701  Biso   1.000  Hf
  Hf4      1.0000 0.35729  0.49603  0.69875  Biso   1.000  Hf
  O1       1.0000 0.03355  0.16286  0.14470  Biso   1.000  O
  O2       1.0000 0.02826  0.08574  0.63957  Biso   1.000  O
  O3       1.0000 0.48135  0.38758  0.41598  Biso   1.000  O
  O4       1.0000 0.48814  0.37974  0.91373  Biso   1.000  O
  O5       1.0000 0.27627  0.12611  0.49958  Biso   1.000  O
  O6       1.0000 0.28160  0.11502  0.98909  Biso   1.000  O
  O7       1.0000 0.24048  0.36895  0.97640  Biso   1.000  O
  O8       1.0000 0.21295  0.37827  0.49014  Biso   1.000  O
  Hf5      1.0000 0.13590  0.52069  0.28540  Biso   1.000  Hf
  Hf6      1.0000 0.13079  0.72927  0.79132  Biso   1.000  Hf
  Hf7      1.0000 0.36084  0.77128  0.20524  Biso   1.000  Hf
  Hf8      1.0000 0.35942  0.96782  0.70773  Biso   1.000  Hf
  O9       1.0000 0.02429  0.66039  0.13988  Biso   1.000  O
  O10      1.0000 0.02965  0.59033  0.63437  Biso   1.000  O
  O11      1.0000 0.46895  0.90602  0.35549  Biso   1.000  O
  O12      1.0000 0.46931  0.83802  0.85808  Biso   1.000  O
  O13      1.0000 0.27155  0.63013  0.47732  Biso   1.000  O
  O14      1.0000 0.26729  0.62540  0.98453  Biso   1.000  O
  O15      1.0000 0.22186  0.87473  0.01905  Biso   1.000  O
  O16      1.0000 0.22144  0.87113  0.51610  Biso   1.000  O
  Hf9      1.0000 0.64101  0.02031  0.29065  Biso   1.000  Hf
  Hf10     1.0000 0.63645  0.23354  0.81079  Biso   1.000  Hf
  Hf11     1.0000 0.85960  0.27062  0.21393  Biso   1.000  Hf
  Hf12     1.0000 0.86006  0.47807  0.70661  Biso   1.000  Hf
  O17      1.0000 0.53523  0.15995  0.16327  Biso   1.000  O
  O18      1.0000 0.53135  0.08530  0.64865  Biso   1.000  O
  O19      1.0000 0.96712  0.41242  0.34300  Biso   1.000  O
  O20      1.0000 0.96614  0.33997  0.84687  Biso   1.000  O
  O21      1.0000 0.77458  0.12720  0.48105  Biso   1.000  O
  O22      1.0000 0.77815  0.11972  0.98259  Biso   1.000  O
  O23      1.0000 0.72982  0.37710  0.03178  Biso   1.000  O
  O24      1.0000 0.72707  0.37350  0.52802  Biso   1.000  O
  Hf13     1.0000 0.63745  0.52045  0.29495  Biso   1.000  Hf
  Hf14     1.0000 0.63818  0.72659  0.79207  Biso   1.000  Hf
  Hf15     1.0000 0.85929  0.77210  0.20474  Biso   1.000  Hf
  Hf16     1.0000 0.85697  0.97901  0.70465  Biso   1.000  Hf
  O25      1.0000 0.52507  0.65092  0.13871  Biso   1.000  O
  O26      1.0000 0.52774  0.60282  0.62828  Biso   1.000  O
  O27      1.0000 0.96708  0.91266  0.34256  Biso   1.000  O
  O28      1.0000 0.96427  0.83855  0.84485  Biso   1.000  O
  O29      1.0000 0.77303  0.62669  0.47469  Biso   1.000  O
  O30      1.0000 0.77209  0.62128  0.97536  Biso   1.000  O
  O31      1.0000 0.72229  0.87599  0.01999  Biso   1.000  O
  O32      1.0000 0.72371  0.87099  0.52036  Biso   1.000  O
  Mo1      1.0000 0.39435  0.24498  0.72251  Biso   1.000  Mo
