data_image0
_cell_length_a       10.1113
_cell_length_b       5.15099
_cell_length_c       10.4845
_cell_angle_alpha    90.2093
_cell_angle_beta     80.5132
_cell_angle_gamma    90.283

_symmetry_space_group_name_H-M    "P 1"
_symmetry_int_tables_number       1

loop_
  _symmetry_equiv_pos_as_xyz
  'x, y, z'

loop_
  _atom_site_label
  _atom_site_occupancy
  _atom_site_fract_x
  _atom_site_fract_y
  _atom_site_fract_z
  _atom_site_thermal_displace_type
  _atom_site_B_iso_or_equiv
  _atom_site_type_symbol
  Hf1      1.0000 0.13506  0.04040  0.14509  Biso   1.000  Hf
  Hf2      1.0000 0.13874  0.45777  0.39588  Biso   1.000  Hf
  Hf3      1.0000 0.35955  0.54180  0.10485  Biso   1.000  Hf
  Hf4      1.0000 0.35558  0.96399  0.34784  Biso   1.000  Hf
  O1       1.0000 0.03274  0.33624  0.07916  Biso   1.000  O
  O2       1.0000 0.03417  0.16029  0.32958  Biso   1.000  O
  O3       1.0000 0.45923  0.85051  0.16190  Biso   1.000  O
  O4       1.0000 0.48819  0.76330  0.45172  Biso   1.000  O
  O5       1.0000 0.27389  0.25709  0.24066  Biso   1.000  O
  O6       1.0000 0.27117  0.23276  0.49230  Biso   1.000  O
  O7       1.0000 0.22105  0.75541  0.00956  Biso   1.000  O
  O8       1.0000 0.21643  0.74267  0.25689  Biso   1.000  O
  Hf5      1.0000 0.13571  0.03777  0.64570  Biso   1.000  Hf
  Hf6      1.0000 0.13566  0.45420  0.89697  Biso   1.000  Hf
  Hf7      1.0000 0.35560  0.53317  0.60860  Biso   1.000  Hf
  Hf8      1.0000 0.35865  0.95177  0.85683  Biso   1.000  Hf
  O9       1.0000 0.03386  0.33327  0.57927  Biso   1.000  O
  O10      1.0000 0.03365  0.15887  0.82902  Biso   1.000  O
  O11      1.0000 0.46378  0.81909  0.68021  Biso   1.000  O
  O12      1.0000 0.46188  0.65920  0.92202  Biso   1.000  O
  O13      1.0000 0.27476  0.25454  0.74144  Biso   1.000  O
  O14      1.0000 0.27374  0.24038  0.99139  Biso   1.000  O
  O15      1.0000 0.22413  0.75198  0.51128  Biso   1.000  O
  O16      1.0000 0.22042  0.73795  0.76058  Biso   1.000  O
  Hf9      1.0000 0.63836  0.04089  0.14228  Biso   1.000  Hf
  Hf10     1.0000 0.63832  0.44856  0.39218  Biso   1.000  Hf
  Hf11     1.0000 0.85858  0.53994  0.10341  Biso   1.000  Hf
  Hf12     1.0000 0.86002  0.95154  0.35432  Biso   1.000  Hf
  O17      1.0000 0.53499  0.33991  0.07907  Biso   1.000  O
  O18      1.0000 0.54043  0.14275  0.32242  Biso   1.000  O
  O19      1.0000 0.96090  0.83648  0.16927  Biso   1.000  O
  O20      1.0000 0.96429  0.65866  0.41978  Biso   1.000  O
  O21      1.0000 0.77706  0.25477  0.23929  Biso   1.000  O
  O22      1.0000 0.77302  0.23395  0.48939  Biso   1.000  O
  O23      1.0000 0.72228  0.75463  0.00809  Biso   1.000  O
  O24      1.0000 0.72120  0.73569  0.25833  Biso   1.000  O
  Hf13     1.0000 0.63570  0.03688  0.64490  Biso   1.000  Hf
  Hf14     1.0000 0.63623  0.45497  0.89478  Biso   1.000  Hf
  Hf15     1.0000 0.85957  0.53688  0.60348  Biso   1.000  Hf
  Hf16     1.0000 0.85891  0.95292  0.85335  Biso   1.000  Hf
  O25      1.0000 0.53001  0.32782  0.57379  Biso   1.000  O
  O26      1.0000 0.53231  0.16262  0.82777  Biso   1.000  O
  O27      1.0000 0.96232  0.83237  0.67019  Biso   1.000  O
  O28      1.0000 0.96237  0.66006  0.91976  Biso   1.000  O
  O29      1.0000 0.77330  0.25247  0.73864  Biso   1.000  O
  O30      1.0000 0.77471  0.23963  0.98812  Biso   1.000  O
  O31      1.0000 0.72658  0.75164  0.51061  Biso   1.000  O
  O32      1.0000 0.72136  0.73768  0.75926  Biso   1.000  O
  N1       1.0000 0.44084  0.58181  0.37375  Biso   1.000  N
