data_image0
_cell_length_a       10.0222
_cell_length_b       10.2556
_cell_length_c       10.4507
_cell_angle_alpha    89.9134
_cell_angle_beta     89.9013
_cell_angle_gamma    90.0955

_symmetry_space_group_name_H-M    "P 1"
_symmetry_int_tables_number       1

loop_
  _symmetry_equiv_pos_as_xyz
  'x, y, z'

loop_
  _atom_site_label
  _atom_site_occupancy
  _atom_site_fract_x
  _atom_site_fract_y
  _atom_site_fract_z
  _atom_site_thermal_displace_type
  _atom_site_B_iso_or_equiv
  _atom_site_type_symbol
  Hf1      1.0000 0.13900  0.02311  0.17169  Biso   1.000  Hf
  Hf2      1.0000 0.13890  0.23084  0.42170  Biso   1.000  Hf
  Hf3      1.0000 0.36091  0.27358  0.16829  Biso   1.000  Hf
  Hf4      1.0000 0.36348  0.47881  0.41976  Biso   1.000  Hf
  Hf5      1.0000 0.64531  0.01558  0.07193  Biso   1.000  Hf
  Hf6      1.0000 0.64406  0.23169  0.33351  Biso   1.000  Hf
  Hf7      1.0000 0.85969  0.27137  0.07938  Biso   1.000  Hf
  Hf8      1.0000 0.86352  0.48093  0.32892  Biso   1.000  Hf
  O1       1.0000 0.03373  0.16761  0.08437  Biso   1.000  O
  O2       1.0000 0.03229  0.08528  0.33489  Biso   1.000  O
  O3       1.0000 0.45641  0.43600  0.09152  Biso   1.000  O
  O4       1.0000 0.46951  0.33165  0.33021  Biso   1.000  O
  O5       1.0000 0.27242  0.12800  0.29621  Biso   1.000  O
  O6       1.0000 0.27868  0.12656  0.04400  Biso   1.000  O
  O7       1.0000 0.22510  0.37724  0.29528  Biso   1.000  O
  O8       1.0000 0.22259  0.37607  0.04466  Biso   1.000  O
  O9       1.0000 0.51206  0.11716  0.19635  Biso   1.000  O
  O10      1.0000 0.53347  0.09081  0.42475  Biso   1.000  O
  O11      1.0000 0.96749  0.41665  0.16581  Biso   1.000  O
  O12      1.0000 0.96665  0.33509  0.41658  Biso   1.000  O
  O13      1.0000 0.77825  0.12469  0.45709  Biso   1.000  O
  O14      1.0000 0.77435  0.12685  0.20748  Biso   1.000  O
  O15      1.0000 0.72413  0.37324  0.45681  Biso   1.000  O
  O16      1.0000 0.72501  0.37923  0.20780  Biso   1.000  O
  Hf9      1.0000 0.14069  0.02213  0.67063  Biso   1.000  Hf
  Hf10     1.0000 0.13900  0.22959  0.92124  Biso   1.000  Hf
  Hf11     1.0000 0.36258  0.27179  0.67255  Biso   1.000  Hf
  Hf12     1.0000 0.36161  0.48194  0.92150  Biso   1.000  Hf
  Hf13     1.0000 0.63974  0.02282  0.58151  Biso   1.000  Hf
  Hf14     1.0000 0.63909  0.22932  0.83225  Biso   1.000  Hf
  Hf15     1.0000 0.86279  0.27172  0.58111  Biso   1.000  Hf
  Hf16     1.0000 0.86181  0.47985  0.82996  Biso   1.000  Hf
  O17      1.0000 0.03463  0.16774  0.58529  Biso   1.000  O
  O18      1.0000 0.03574  0.08365  0.83371  Biso   1.000  O
  O19      1.0000 0.46805  0.41625  0.58334  Biso   1.000  O
  O20      1.0000 0.46608  0.33256  0.83917  Biso   1.000  O
  O21      1.0000 0.27764  0.12437  0.79449  Biso   1.000  O
  O22      1.0000 0.27738  0.12785  0.54552  Biso   1.000  O
  O23      1.0000 0.22411  0.37462  0.79466  Biso   1.000  O
  O24      1.0000 0.22514  0.37703  0.54467  Biso   1.000  O
  O25      1.0000 0.53520  0.16887  0.66829  Biso   1.000  O
  O26      1.0000 0.53787  0.07358  0.90610  Biso   1.000  O
  O27      1.0000 0.96706  0.41772  0.66610  Biso   1.000  O
  O28      1.0000 0.96621  0.33365  0.91567  Biso   1.000  O
  O29      1.0000 0.78243  0.12264  0.95350  Biso   1.000  O
  O30      1.0000 0.77761  0.12719  0.70635  Biso   1.000  O
  O31      1.0000 0.72383  0.37545  0.95732  Biso   1.000  O
  O32      1.0000 0.72386  0.37659  0.70715  Biso   1.000  O
  Hf17     1.0000 0.14051  0.52193  0.17104  Biso   1.000  Hf
  Hf18     1.0000 0.14087  0.73029  0.42040  Biso   1.000  Hf
  Hf19     1.0000 0.36236  0.77334  0.17034  Biso   1.000  Hf
  Hf20     1.0000 0.36273  0.98225  0.42171  Biso   1.000  Hf
  Hf21     1.0000 0.63728  0.52310  0.08013  Biso   1.000  Hf
  Hf22     1.0000 0.63972  0.73114  0.32864  Biso   1.000  Hf
  Hf23     1.0000 0.86364  0.77032  0.07905  Biso   1.000  Hf
  Hf24     1.0000 0.86202  0.97940  0.32891  Biso   1.000  Hf
  O33      1.0000 0.03451  0.66666  0.08435  Biso   1.000  O
  O34      1.0000 0.03528  0.58513  0.33364  Biso   1.000  O
  O35      1.0000 0.46962  0.91144  0.07602  Biso   1.000  O
  O36      1.0000 0.46883  0.83884  0.33273  Biso   1.000  O
  O37      1.0000 0.27854  0.62580  0.29395  Biso   1.000  O
  O38      1.0000 0.27592  0.62925  0.04333  Biso   1.000  O
  O39      1.0000 0.22542  0.87635  0.29424  Biso   1.000  O
  O40      1.0000 0.22355  0.87794  0.04435  Biso   1.000  O
  O41      1.0000 0.53669  0.67228  0.16492  Biso   1.000  O
  O42      1.0000 0.53552  0.58360  0.41411  Biso   1.000  O
  O43      1.0000 0.96745  0.91763  0.16540  Biso   1.000  O
  O44      1.0000 0.96754  0.83353  0.41465  Biso   1.000  O
  O45      1.0000 0.77777  0.62434  0.45562  Biso   1.000  O
  O46      1.0000 0.77747  0.62695  0.20580  Biso   1.000  O
  O47      1.0000 0.72430  0.87549  0.45568  Biso   1.000  O
  O48      1.0000 0.72674  0.87575  0.20464  Biso   1.000  O
  Hf25     1.0000 0.13987  0.52155  0.67077  Biso   1.000  Hf
  Hf26     1.0000 0.13954  0.72980  0.92050  Biso   1.000  Hf
  Hf27     1.0000 0.36247  0.77090  0.66938  Biso   1.000  Hf
  Hf28     1.0000 0.36123  0.97721  0.91870  Biso   1.000  Hf
  Hf29     1.0000 0.64014  0.52161  0.57901  Biso   1.000  Hf
  Hf30     1.0000 0.63986  0.72882  0.82742  Biso   1.000  Hf
  Hf31     1.0000 0.86281  0.77167  0.57804  Biso   1.000  Hf
  Hf32     1.0000 0.86413  0.97906  0.82721  Biso   1.000  Hf
  O49      1.0000 0.03553  0.66753  0.58397  Biso   1.000  O
  O50      1.0000 0.03466  0.58402  0.83446  Biso   1.000  O
  O51      1.0000 0.46742  0.91741  0.58443  Biso   1.000  O
  O52      1.0000 0.46635  0.83090  0.83204  Biso   1.000  O
  O53      1.0000 0.27720  0.62458  0.79337  Biso   1.000  O
  O54      1.0000 0.27827  0.62616  0.54287  Biso   1.000  O
  O55      1.0000 0.22442  0.87400  0.79313  Biso   1.000  O
  O56      1.0000 0.22530  0.87747  0.54333  Biso   1.000  O
  O57      1.0000 0.53510  0.66680  0.66352  Biso   1.000  O
  O58      1.0000 0.53578  0.58260  0.91327  Biso   1.000  O
  O59      1.0000 0.96842  0.91731  0.66390  Biso   1.000  O
  O60      1.0000 0.96814  0.83408  0.91538  Biso   1.000  O
  O61      1.0000 0.77709  0.62485  0.95552  Biso   1.000  O
  O62      1.0000 0.77779  0.62635  0.70512  Biso   1.000  O
  O63      1.0000 0.72663  0.87255  0.95385  Biso   1.000  O
  O64      1.0000 0.72556  0.87605  0.70509  Biso   1.000  O
  N1       1.0000 0.55368  0.20735  0.10628  Biso   1.000  N
