data_image0
_cell_length_a       9.98669
_cell_length_b       10.3505
_cell_length_c       10.0343
_cell_angle_alpha    90.0638
_cell_angle_beta     90.0789
_cell_angle_gamma    89.9883

_symmetry_space_group_name_H-M    "P 1"
_symmetry_int_tables_number       1

loop_
  _symmetry_equiv_pos_as_xyz
  'x, y, z'

loop_
  _atom_site_label
  _atom_site_occupancy
  _atom_site_fract_x
  _atom_site_fract_y
  _atom_site_fract_z
  _atom_site_thermal_displace_type
  _atom_site_B_iso_or_equiv
  _atom_site_type_symbol
  Na1      1.0000 0.13116  0.01340  0.12107  Biso   1.000  Na
  Hf1      1.0000 0.13358  0.01746  0.62897  Biso   1.000  Hf
  Hf2      1.0000 0.13569  0.51596  0.12569  Biso   1.000  Hf
  Hf3      1.0000 0.13452  0.51713  0.62622  Biso   1.000  Hf
  Hf4      1.0000 0.63373  0.01512  0.12339  Biso   1.000  Hf
  Hf5      1.0000 0.63206  0.01578  0.62377  Biso   1.000  Hf
  Hf6      1.0000 0.63370  0.51589  0.12585  Biso   1.000  Hf
  Hf7      1.0000 0.63355  0.51606  0.62620  Biso   1.000  Hf
  Hf8      1.0000 0.13476  0.23153  0.37459  Biso   1.000  Hf
  Hf9      1.0000 0.13652  0.23274  0.87661  Biso   1.000  Hf
  Hf10     1.0000 0.13584  0.73488  0.37632  Biso   1.000  Hf
  Hf11     1.0000 0.13728  0.73505  0.87830  Biso   1.000  Hf
  Hf12     1.0000 0.63243  0.23280  0.37417  Biso   1.000  Hf
  Hf13     1.0000 0.63466  0.23205  0.87484  Biso   1.000  Hf
  Hf14     1.0000 0.63220  0.73360  0.37646  Biso   1.000  Hf
  Hf15     1.0000 0.63567  0.73341  0.87530  Biso   1.000  Hf
  Hf16     1.0000 0.36298  0.26432  0.12724  Biso   1.000  Hf
  Hf17     1.0000 0.36560  0.26639  0.62572  Biso   1.000  Hf
  Hf18     1.0000 0.36318  0.76732  0.12547  Biso   1.000  Hf
  Hf19     1.0000 0.36585  0.76828  0.62652  Biso   1.000  Hf
  Hf20     1.0000 0.86361  0.26474  0.12570  Biso   1.000  Hf
  Hf21     1.0000 0.86436  0.26683  0.62413  Biso   1.000  Hf
  Hf22     1.0000 0.86566  0.76774  0.12556  Biso   1.000  Hf
  Hf23     1.0000 0.86590  0.76512  0.62460  Biso   1.000  Hf
  Hf24     1.0000 0.36466  0.48319  0.37615  Biso   1.000  Hf
  Hf25     1.0000 0.36576  0.48292  0.87618  Biso   1.000  Hf
  Hf26     1.0000 0.36076  0.98365  0.37243  Biso   1.000  Hf
  Hf27     1.0000 0.36218  0.98276  0.87981  Biso   1.000  Hf
  Hf28     1.0000 0.86517  0.48419  0.37674  Biso   1.000  Hf
  Hf29     1.0000 0.86607  0.48301  0.87666  Biso   1.000  Hf
  Hf30     1.0000 0.86665  0.98318  0.37578  Biso   1.000  Hf
  Hf31     1.0000 0.86606  0.98240  0.87237  Biso   1.000  Hf
  O1       1.0000 0.02820  0.19456  0.20499  Biso   1.000  O
  O2       1.0000 0.03820  0.18951  0.68881  Biso   1.000  O
  O3       1.0000 0.03596  0.68412  0.19472  Biso   1.000  O
  O4       1.0000 0.03656  0.68501  0.69394  Biso   1.000  O
  O5       1.0000 0.53956  0.18588  0.19007  Biso   1.000  O
  O6       1.0000 0.53677  0.18475  0.69299  Biso   1.000  O
  O7       1.0000 0.53481  0.68214  0.19640  Biso   1.000  O
  O8       1.0000 0.53582  0.68354  0.69504  Biso   1.000  O
  O9       1.0000 0.03428  0.06652  0.44741  Biso   1.000  O
  O10      1.0000 0.03864  0.06657  0.91158  Biso   1.000  O
  O11      1.0000 0.03560  0.56535  0.44562  Biso   1.000  O
  O12      1.0000 0.03584  0.56678  0.94497  Biso   1.000  O
  O13      1.0000 0.53417  0.06570  0.44324  Biso   1.000  O
  O14      1.0000 0.53793  0.06532  0.94217  Biso   1.000  O
  O15      1.0000 0.53464  0.56580  0.44564  Biso   1.000  O
  O16      1.0000 0.53564  0.56615  0.94508  Biso   1.000  O
  O17      1.0000 0.46461  0.43308  0.19621  Biso   1.000  O
  O18      1.0000 0.46407  0.43418  0.69445  Biso   1.000  O
  O19      1.0000 0.46496  0.93508  0.19442  Biso   1.000  O
  O20      1.0000 0.46422  0.93399  0.69664  Biso   1.000  O
  O21      1.0000 0.96287  0.43685  0.19470  Biso   1.000  O
  O22      1.0000 0.96437  0.43485  0.69569  Biso   1.000  O
  O23      1.0000 0.94908  0.93083  0.19955  Biso   1.000  O
  O24      1.0000 0.96082  0.93408  0.68807  Biso   1.000  O
  O25      1.0000 0.46398  0.31576  0.44482  Biso   1.000  O
  O26      1.0000 0.46625  0.31713  0.94335  Biso   1.000  O
  O27      1.0000 0.46563  0.81756  0.44867  Biso   1.000  O
  O28      1.0000 0.47065  0.81809  0.94716  Biso   1.000  O
  O29      1.0000 0.96455  0.31860  0.44682  Biso   1.000  O
  O30      1.0000 0.96570  0.31663  0.94678  Biso   1.000  O
  O31      1.0000 0.96370  0.81442  0.44427  Biso   1.000  O
  O32      1.0000 0.96397  0.81537  0.94324  Biso   1.000  O
  O33      1.0000 0.28232  0.12948  0.25735  Biso   1.000  O
  O34      1.0000 0.27354  0.11939  0.74851  Biso   1.000  O
  O35      1.0000 0.26980  0.61434  0.24955  Biso   1.000  O
  O36      1.0000 0.27105  0.61885  0.75030  Biso   1.000  O
  O37      1.0000 0.76801  0.11575  0.24868  Biso   1.000  O
  O38      1.0000 0.77041  0.11712  0.74690  Biso   1.000  O
  O39      1.0000 0.77034  0.61714  0.24913  Biso   1.000  O
  O40      1.0000 0.77128  0.61638  0.74891  Biso   1.000  O
  O41      1.0000 0.26957  0.13038  0.50251  Biso   1.000  O
  O42      1.0000 0.27894  0.13673  0.99349  Biso   1.000  O
  O43      1.0000 0.27089  0.63293  0.49996  Biso   1.000  O
  O44      1.0000 0.27213  0.62812  0.00053  Biso   1.000  O
  O45      1.0000 0.76826  0.13422  0.49808  Biso   1.000  O
  O46      1.0000 0.77361  0.13084  0.99746  Biso   1.000  O
  O47      1.0000 0.76922  0.63203  0.49910  Biso   1.000  O
  O48      1.0000 0.76993  0.63074  0.99887  Biso   1.000  O
  O49      1.0000 0.23024  0.38257  0.50007  Biso   1.000  O
  O50      1.0000 0.23060  0.38214  0.00055  Biso   1.000  O
  O51      1.0000 0.22734  0.88316  0.50207  Biso   1.000  O
  O52      1.0000 0.23658  0.87207  0.99529  Biso   1.000  O
  O53      1.0000 0.72860  0.38304  0.49920  Biso   1.000  O
  O54      1.0000 0.72877  0.38190  0.99884  Biso   1.000  O
  O55      1.0000 0.72961  0.88216  0.49864  Biso   1.000  O
  O56      1.0000 0.73033  0.88095  0.99856  Biso   1.000  O
  O57      1.0000 0.22650  0.37026  0.24974  Biso   1.000  O
  O58      1.0000 0.22992  0.36869  0.74969  Biso   1.000  O
  O59      1.0000 0.24020  0.85756  0.25742  Biso   1.000  O
  O60      1.0000 0.22846  0.86922  0.74893  Biso   1.000  O
  O61      1.0000 0.72992  0.36748  0.25001  Biso   1.000  O
  O62      1.0000 0.72982  0.36752  0.74936  Biso   1.000  O
  O63      1.0000 0.72163  0.86572  0.24817  Biso   1.000  O
  O64      1.0000 0.72929  0.86645  0.74791  Biso   1.000  O
