data_image0
_cell_length_a       10.2196
_cell_length_b       10.2815
_cell_length_c       5.21696
_cell_angle_alpha    90.0023
_cell_angle_beta     79.9482
_cell_angle_gamma    90.1409

_symmetry_space_group_name_H-M    "P 1"
_symmetry_int_tables_number       1

loop_
  _symmetry_equiv_pos_as_xyz
  'x, y, z'

loop_
  _atom_site_label
  _atom_site_occupancy
  _atom_site_fract_x
  _atom_site_fract_y
  _atom_site_fract_z
  _atom_site_thermal_displace_type
  _atom_site_B_iso_or_equiv
  _atom_site_type_symbol
  Na1      1.0000 0.13892  0.01355  0.29508  Biso   1.000  Na
  Hf1      1.0000 0.14078  0.52117  0.29056  Biso   1.000  Hf
  Hf2      1.0000 0.64033  0.02029  0.29250  Biso   1.000  Hf
  Hf3      1.0000 0.63789  0.52049  0.29040  Biso   1.000  Hf
  Hf4      1.0000 0.14042  0.22797  0.79547  Biso   1.000  Hf
  Hf5      1.0000 0.14344  0.73054  0.78910  Biso   1.000  Hf
  Hf6      1.0000 0.63793  0.22870  0.79169  Biso   1.000  Hf
  Hf7      1.0000 0.63888  0.72833  0.79204  Biso   1.000  Hf
  Hf8      1.0000 0.35720  0.26690  0.21039  Biso   1.000  Hf
  Hf9      1.0000 0.35867  0.77360  0.20727  Biso   1.000  Hf
  Hf10     1.0000 0.85838  0.27052  0.20367  Biso   1.000  Hf
  Hf11     1.0000 0.86128  0.77089  0.20626  Biso   1.000  Hf
  Hf12     1.0000 0.35962  0.47745  0.70662  Biso   1.000  Hf
  Hf13     1.0000 0.35672  0.97826  0.70601  Biso   1.000  Hf
  Hf14     1.0000 0.86020  0.47986  0.70591  Biso   1.000  Hf
  Hf15     1.0000 0.86233  0.97859  0.70673  Biso   1.000  Hf
  O1       1.0000 0.03321  0.17949  0.16089  Biso   1.000  O
  O2       1.0000 0.03481  0.66723  0.16001  Biso   1.000  O
  O3       1.0000 0.53409  0.16714  0.16015  Biso   1.000  O
  O4       1.0000 0.53330  0.66569  0.15755  Biso   1.000  O
  O5       1.0000 0.02644  0.08553  0.70275  Biso   1.000  O
  O6       1.0000 0.03353  0.58315  0.65668  Biso   1.000  O
  O7       1.0000 0.53569  0.08220  0.65862  Biso   1.000  O
  O8       1.0000 0.53277  0.58356  0.65646  Biso   1.000  O
  O9       1.0000 0.46587  0.41478  0.34140  Biso   1.000  O
  O10      1.0000 0.46900  0.91631  0.33992  Biso   1.000  O
  O11      1.0000 0.96513  0.41794  0.33621  Biso   1.000  O
  O12      1.0000 0.94781  0.91878  0.34587  Biso   1.000  O
  O13      1.0000 0.46728  0.33503  0.84228  Biso   1.000  O
  O14      1.0000 0.47220  0.83763  0.84347  Biso   1.000  O
  O15      1.0000 0.96497  0.33624  0.83578  Biso   1.000  O
  O16      1.0000 0.96677  0.83059  0.83751  Biso   1.000  O
  O17      1.0000 0.28554  0.13418  0.49859  Biso   1.000  O
  O18      1.0000 0.27657  0.62455  0.47806  Biso   1.000  O
  O19      1.0000 0.77501  0.12982  0.48269  Biso   1.000  O
  O20      1.0000 0.77507  0.62833  0.47881  Biso   1.000  O
  O21      1.0000 0.28638  0.12904  0.96772  Biso   1.000  O
  O22      1.0000 0.27661  0.61886  0.98001  Biso   1.000  O
  O23      1.0000 0.77264  0.12259  0.98272  Biso   1.000  O
  O24      1.0000 0.77423  0.61994  0.97903  Biso   1.000  O
  O25      1.0000 0.22439  0.37947  0.01847  Biso   1.000  O
  O26      1.0000 0.23345  0.86989  0.00143  Biso   1.000  O
  O27      1.0000 0.72278  0.37942  0.01576  Biso   1.000  O
  O28      1.0000 0.72578  0.87802  0.01677  Biso   1.000  O
  O29      1.0000 0.22206  0.37216  0.51749  Biso   1.000  O
  O30      1.0000 0.23393  0.86260  0.51967  Biso   1.000  O
  O31      1.0000 0.72371  0.37200  0.51675  Biso   1.000  O
  O32      1.0000 0.71625  0.87029  0.52104  Biso   1.000  O
