data_image0
_cell_length_a       5.02461
_cell_length_b       10.4605
_cell_length_c       10.0595
_cell_angle_alpha    89.3178
_cell_angle_beta     89.5717
_cell_angle_gamma    89.4506

_symmetry_space_group_name_H-M    "P 1"
_symmetry_int_tables_number       1

loop_
  _symmetry_equiv_pos_as_xyz
  'x, y, z'

loop_
  _atom_site_label
  _atom_site_occupancy
  _atom_site_fract_x
  _atom_site_fract_y
  _atom_site_fract_z
  _atom_site_thermal_displace_type
  _atom_site_B_iso_or_equiv
  _atom_site_type_symbol
  Hf1      1.0000 0.25542  0.01138  0.12642  Biso   1.000  Hf
  Hf2      1.0000 0.26525  0.22719  0.38318  Biso   1.000  Hf
  Hf3      1.0000 0.72457  0.26183  0.12464  Biso   1.000  Hf
  Hf4      1.0000 0.74461  0.47948  0.37449  Biso   1.000  Hf
  O1       1.0000 0.03523  0.17153  0.21465  Biso   1.000  O
  O2       1.0000 0.07465  0.05837  0.44561  Biso   1.000  O
  O3       1.0000 0.94934  0.42940  0.19529  Biso   1.000  O
  O4       1.0000 0.93075  0.31578  0.44648  Biso   1.000  O
  O5       1.0000 0.51989  0.11350  0.24522  Biso   1.000  O
  O6       1.0000 0.54682  0.12934  0.49571  Biso   1.000  O
  O7       1.0000 0.46000  0.37999  0.50140  Biso   1.000  O
  O8       1.0000 0.46592  0.36054  0.25399  Biso   1.000  O
  Hf5      1.0000 0.27339  0.00788  0.62364  Biso   1.000  Hf
  Hf6      1.0000 0.24584  0.21566  0.84433  Biso   1.000  Hf
  Hf7      1.0000 0.72477  0.26779  0.62341  Biso   1.000  Hf
  Hf8      1.0000 0.74770  0.48576  0.87541  Biso   1.000  Hf
  O9       1.0000 0.07669  0.17840  0.67250  Biso   1.000  O
  O10      1.0000 0.03584  0.06968  0.95560  Biso   1.000  O
  O11      1.0000 0.94165  0.42601  0.69834  Biso   1.000  O
  O12      1.0000 0.93854  0.31170  0.94214  Biso   1.000  O
  O13      1.0000 0.56499  0.11619  0.73909  Biso   1.000  O
  O14      1.0000 0.49991  0.14589  0.99746  Biso   1.000  O
  O15      1.0000 0.50710  0.40909  0.01383  Biso   1.000  O
  O16      1.0000 0.46440  0.36716  0.75629  Biso   1.000  O
  Hf9      1.0000 0.27589  0.53577  0.12922  Biso   1.000  Hf
  Hf10     1.0000 0.27337  0.73290  0.38109  Biso   1.000  Hf
  Hf11     1.0000 0.73070  0.76945  0.12647  Biso   1.000  Hf
  Hf12     1.0000 0.73660  0.98409  0.37357  Biso   1.000  Hf
  O17      1.0000 0.06920  0.68873  0.20230  Biso   1.000  O
  O18      1.0000 0.07390  0.56467  0.44719  Biso   1.000  O
  O19      1.0000 0.92051  0.93154  0.19614  Biso   1.000  O
  O20      1.0000 0.93695  0.81626  0.44875  Biso   1.000  O
  O21      1.0000 0.55077  0.61851  0.25181  Biso   1.000  O
  O22      1.0000 0.54497  0.62871  0.50166  Biso   1.000  O
  O23      1.0000 0.46989  0.87817  0.49823  Biso   1.000  O
  O24      1.0000 0.45408  0.86512  0.24955  Biso   1.000  O
  Hf13     1.0000 0.27607  0.51338  0.62880  Biso   1.000  Hf
  Hf14     1.0000 0.26233  0.73781  0.87293  Biso   1.000  Hf
  Hf15     1.0000 0.73910  0.76233  0.62524  Biso   1.000  Hf
  Hf16     1.0000 0.72479  0.98266  0.87317  Biso   1.000  Hf
  O25      1.0000 0.07237  0.67714  0.69805  Biso   1.000  O
  O26      1.0000 0.06915  0.57154  0.95248  Biso   1.000  O
  O27      1.0000 0.94120  0.92521  0.70110  Biso   1.000  O
  O28      1.0000 0.93163  0.81926  0.94966  Biso   1.000  O
  O29      1.0000 0.54302  0.61432  0.75116  Biso   1.000  O
  O30      1.0000 0.52990  0.64873  0.99989  Biso   1.000  O
  O31      1.0000 0.45656  0.89043  0.99882  Biso   1.000  O
  O32      1.0000 0.47067  0.86178  0.74815  Biso   1.000  O
  Na1      1.0000 0.22367  0.29310  0.09220  Biso   1.000  Na
