data_image0
_cell_length_a       10.172
_cell_length_b       10.2645
_cell_length_c       10.453
_cell_angle_alpha    89.9826
_cell_angle_beta     80.035
_cell_angle_gamma    90.0522

_symmetry_space_group_name_H-M    "P 1"
_symmetry_int_tables_number       1

loop_
  _symmetry_equiv_pos_as_xyz
  'x, y, z'

loop_
  _atom_site_label
  _atom_site_occupancy
  _atom_site_fract_x
  _atom_site_fract_y
  _atom_site_fract_z
  _atom_site_thermal_displace_type
  _atom_site_B_iso_or_equiv
  _atom_site_type_symbol
  Na1      1.0000 0.14148  0.01443  0.14693  Biso   1.000  Na
  Hf1      1.0000 0.13987  0.02068  0.64577  Biso   1.000  Hf
  Hf2      1.0000 0.14033  0.52072  0.14457  Biso   1.000  Hf
  Hf3      1.0000 0.14021  0.52139  0.64670  Biso   1.000  Hf
  Hf4      1.0000 0.64000  0.02072  0.14631  Biso   1.000  Hf
  Hf5      1.0000 0.63912  0.02084  0.64600  Biso   1.000  Hf
  Hf6      1.0000 0.63731  0.51987  0.14554  Biso   1.000  Hf
  Hf7      1.0000 0.63866  0.52127  0.64558  Biso   1.000  Hf
  Hf8      1.0000 0.14176  0.22756  0.39411  Biso   1.000  Hf
  Hf9      1.0000 0.13973  0.22638  0.90020  Biso   1.000  Hf
  Hf10     1.0000 0.14176  0.72802  0.39417  Biso   1.000  Hf
  Hf11     1.0000 0.14204  0.73170  0.89644  Biso   1.000  Hf
  Hf12     1.0000 0.63795  0.22854  0.39591  Biso   1.000  Hf
  Hf13     1.0000 0.63882  0.22911  0.89625  Biso   1.000  Hf
  Hf14     1.0000 0.63745  0.72914  0.39591  Biso   1.000  Hf
  Hf15     1.0000 0.63957  0.72861  0.89605  Biso   1.000  Hf
  Hf16     1.0000 0.35617  0.26456  0.10507  Biso   1.000  Hf
  Hf17     1.0000 0.35944  0.27038  0.60492  Biso   1.000  Hf
  Hf18     1.0000 0.35869  0.77344  0.10389  Biso   1.000  Hf
  Hf19     1.0000 0.36059  0.77270  0.60353  Biso   1.000  Hf
  Hf20     1.0000 0.86063  0.27019  0.10288  Biso   1.000  Hf
  Hf21     1.0000 0.85973  0.27132  0.60301  Biso   1.000  Hf
  Hf22     1.0000 0.85990  0.77095  0.10382  Biso   1.000  Hf
  Hf23     1.0000 0.86124  0.77092  0.60297  Biso   1.000  Hf
  Hf24     1.0000 0.35982  0.47737  0.35261  Biso   1.000  Hf
  Hf25     1.0000 0.36045  0.47753  0.85479  Biso   1.000  Hf
  Hf26     1.0000 0.35699  0.97979  0.35133  Biso   1.000  Hf
  Hf27     1.0000 0.35886  0.97989  0.85687  Biso   1.000  Hf
  Hf28     1.0000 0.85993  0.47931  0.35348  Biso   1.000  Hf
  Hf29     1.0000 0.86071  0.47922  0.85360  Biso   1.000  Hf
  Hf30     1.0000 0.86377  0.97963  0.35220  Biso   1.000  Hf
  Hf31     1.0000 0.86024  0.97857  0.85410  Biso   1.000  Hf
  O1       1.0000 0.03407  0.17976  0.07991  Biso   1.000  O
  O2       1.0000 0.03452  0.17044  0.58304  Biso   1.000  O
  O3       1.0000 0.03494  0.66894  0.07980  Biso   1.000  O
  O4       1.0000 0.03491  0.66726  0.58057  Biso   1.000  O
  O5       1.0000 0.53578  0.16758  0.07928  Biso   1.000  O
  O6       1.0000 0.53335  0.16709  0.58038  Biso   1.000  O
  O7       1.0000 0.53364  0.66580  0.07824  Biso   1.000  O
  O8       1.0000 0.53384  0.66722  0.57967  Biso   1.000  O
  O9       1.0000 0.02888  0.08428  0.34850  Biso   1.000  O
  O10      1.0000 0.03365  0.08208  0.83010  Biso   1.000  O
  O11      1.0000 0.03368  0.58306  0.32866  Biso   1.000  O
  O12      1.0000 0.03499  0.58146  0.83008  Biso   1.000  O
  O13      1.0000 0.53530  0.08165  0.32991  Biso   1.000  O
  O14      1.0000 0.53668  0.08244  0.82903  Biso   1.000  O
  O15      1.0000 0.53306  0.58238  0.32895  Biso   1.000  O
  O16      1.0000 0.53366  0.58401  0.82825  Biso   1.000  O
  O17      1.0000 0.46503  0.41421  0.17105  Biso   1.000  O
  O18      1.0000 0.46555  0.41683  0.67080  Biso   1.000  O
  O19      1.0000 0.46818  0.91723  0.16975  Biso   1.000  O
  O20      1.0000 0.46593  0.91647  0.67216  Biso   1.000  O
  O21      1.0000 0.96308  0.42077  0.16849  Biso   1.000  O
  O22      1.0000 0.96564  0.41814  0.66909  Biso   1.000  O
  O23      1.0000 0.94822  0.91967  0.17098  Biso   1.000  O
  O24      1.0000 0.96480  0.91843  0.66923  Biso   1.000  O
  O25      1.0000 0.46464  0.33215  0.42144  Biso   1.000  O
  O26      1.0000 0.46821  0.33556  0.92111  Biso   1.000  O
  O27      1.0000 0.46559  0.83382  0.42207  Biso   1.000  O
  O28      1.0000 0.47295  0.83795  0.92201  Biso   1.000  O
  O29      1.0000 0.96546  0.33449  0.42012  Biso   1.000  O
  O30      1.0000 0.96460  0.33287  0.91717  Biso   1.000  O
  O31      1.0000 0.96622  0.83030  0.41910  Biso   1.000  O
  O32      1.0000 0.96486  0.83076  0.91809  Biso   1.000  O
  O33      1.0000 0.28652  0.13554  0.25072  Biso   1.000  O
  O34      1.0000 0.27502  0.12744  0.73982  Biso   1.000  O
  O35      1.0000 0.27643  0.62395  0.23886  Biso   1.000  O
  O36      1.0000 0.27649  0.62975  0.74073  Biso   1.000  O
  O37      1.0000 0.77493  0.12988  0.24151  Biso   1.000  O
  O38      1.0000 0.77687  0.12876  0.74019  Biso   1.000  O
  O39      1.0000 0.77465  0.62856  0.24031  Biso   1.000  O
  O40      1.0000 0.77607  0.62851  0.73931  Biso   1.000  O
  O41      1.0000 0.27495  0.12045  0.49428  Biso   1.000  O
  O42      1.0000 0.28775  0.12948  0.98104  Biso   1.000  O
  O43      1.0000 0.27653  0.62088  0.49029  Biso   1.000  O
  O44      1.0000 0.27662  0.61857  0.99047  Biso   1.000  O
  O45      1.0000 0.77351  0.12266  0.49155  Biso   1.000  O
  O46      1.0000 0.77636  0.12115  0.99017  Biso   1.000  O
  O47      1.0000 0.77541  0.62138  0.49021  Biso   1.000  O
  O48      1.0000 0.77482  0.61982  0.98961  Biso   1.000  O
  O49      1.0000 0.22370  0.37911  0.00918  Biso   1.000  O
  O50      1.0000 0.22394  0.37894  0.50967  Biso   1.000  O
  O51      1.0000 0.23348  0.86951  0.99915  Biso   1.000  O
  O52      1.0000 0.22294  0.87848  0.50992  Biso   1.000  O
  O53      1.0000 0.72329  0.37914  0.00831  Biso   1.000  O
  O54      1.0000 0.72308  0.37943  0.50908  Biso   1.000  O
  O55      1.0000 0.72443  0.87852  0.00845  Biso   1.000  O
  O56      1.0000 0.72512  0.87874  0.50907  Biso   1.000  O
  O57      1.0000 0.22041  0.37248  0.25832  Biso   1.000  O
  O58      1.0000 0.22427  0.37088  0.75993  Biso   1.000  O
  O59      1.0000 0.23404  0.86142  0.26334  Biso   1.000  O
  O60      1.0000 0.22297  0.87248  0.75647  Biso   1.000  O
  O61      1.0000 0.72288  0.37173  0.26008  Biso   1.000  O
  O62      1.0000 0.72426  0.37133  0.75812  Biso   1.000  O
  O63      1.0000 0.71604  0.87038  0.26084  Biso   1.000  O
  O64      1.0000 0.72507  0.87079  0.75844  Biso   1.000  O
