data_image0
_cell_length_a       9.98961
_cell_length_b       10.1691
_cell_length_c       5.19836
_cell_angle_alpha    90.0435
_cell_angle_beta     90.8568
_cell_angle_gamma    89.4282

_symmetry_space_group_name_H-M    "P 1"
_symmetry_int_tables_number       1

loop_
  _symmetry_equiv_pos_as_xyz
  'x, y, z'

loop_
  _atom_site_label
  _atom_site_occupancy
  _atom_site_fract_x
  _atom_site_fract_y
  _atom_site_fract_z
  _atom_site_thermal_displace_type
  _atom_site_B_iso_or_equiv
  _atom_site_type_symbol
  Ni1      1.0000 0.12217  0.00974  0.38298  Biso   1.000  Ni
  Hf1      1.0000 0.13960  0.52256  0.34606  Biso   1.000  Hf
  Hf2      1.0000 0.14546  0.22594  0.83492  Biso   1.000  Hf
  Hf3      1.0000 0.13641  0.73306  0.84701  Biso   1.000  Hf
  Hf4      1.0000 0.35888  0.27044  0.33245  Biso   1.000  Hf
  Hf5      1.0000 0.35639  0.77841  0.33817  Biso   1.000  Hf
  Hf6      1.0000 0.36058  0.48002  0.84267  Biso   1.000  Hf
  Hf7      1.0000 0.35720  0.98365  0.83925  Biso   1.000  Hf
  Hf8      1.0000 0.63723  0.02188  0.15424  Biso   1.000  Hf
  Hf9      1.0000 0.63946  0.51978  0.16223  Biso   1.000  Hf
  Hf10     1.0000 0.63889  0.23007  0.65886  Biso   1.000  Hf
  Hf11     1.0000 0.63529  0.72780  0.65804  Biso   1.000  Hf
  Hf12     1.0000 0.86993  0.26348  0.16983  Biso   1.000  Hf
  Hf13     1.0000 0.86035  0.77031  0.16129  Biso   1.000  Hf
  Hf14     1.0000 0.86344  0.47631  0.66794  Biso   1.000  Hf
  Hf15     1.0000 0.85676  0.97753  0.66120  Biso   1.000  Hf
  O1       1.0000 0.04845  0.14861  0.17278  Biso   1.000  O
  O2       1.0000 0.03366  0.66777  0.17482  Biso   1.000  O
  O3       1.0000 0.03544  0.07997  0.65605  Biso   1.000  O
  O4       1.0000 0.03490  0.58223  0.67959  Biso   1.000  O
  O5       1.0000 0.46503  0.41984  0.17252  Biso   1.000  O
  O6       1.0000 0.46550  0.91900  0.16561  Biso   1.000  O
  O7       1.0000 0.46592  0.33211  0.67044  Biso   1.000  O
  O8       1.0000 0.45953  0.83228  0.66993  Biso   1.000  O
  O9       1.0000 0.26447  0.11336  0.54256  Biso   1.000  O
  O10      1.0000 0.27520  0.62803  0.58986  Biso   1.000  O
  O11      1.0000 0.30420  0.14996  0.03240  Biso   1.000  O
  O12      1.0000 0.27703  0.63269  0.08895  Biso   1.000  O
  O13      1.0000 0.22497  0.37257  0.59039  Biso   1.000  O
  O14      1.0000 0.21059  0.87797  0.58319  Biso   1.000  O
  O15      1.0000 0.21906  0.38289  0.08781  Biso   1.000  O
  O16      1.0000 0.21669  0.89206  0.09584  Biso   1.000  O
  O17      1.0000 0.53627  0.17069  0.32341  Biso   1.000  O
  O18      1.0000 0.53262  0.67042  0.32498  Biso   1.000  O
  O19      1.0000 0.53792  0.07781  0.81513  Biso   1.000  O
  O20      1.0000 0.53507  0.58061  0.82691  Biso   1.000  O
  O21      1.0000 0.97021  0.41195  0.34340  Biso   1.000  O
  O22      1.0000 0.96623  0.91942  0.33471  Biso   1.000  O
  O23      1.0000 0.96941  0.32643  0.84485  Biso   1.000  O
  O24      1.0000 0.96197  0.83240  0.83489  Biso   1.000  O
  O25      1.0000 0.77979  0.12191  0.91377  Biso   1.000  O
  O26      1.0000 0.77724  0.62271  0.91749  Biso   1.000  O
  O27      1.0000 0.77766  0.12504  0.41231  Biso   1.000  O
  O28      1.0000 0.77686  0.62464  0.41800  Biso   1.000  O
  O29      1.0000 0.72773  0.37138  0.92029  Biso   1.000  O
  O30      1.0000 0.72021  0.87180  0.91136  Biso   1.000  O
  O31      1.0000 0.72737  0.37447  0.41670  Biso   1.000  O
  O32      1.0000 0.72474  0.87599  0.41194  Biso   1.000  O
