data_image0
_cell_length_a       9.99695
_cell_length_b       10.4355
_cell_length_c       10.0419
_cell_angle_alpha    89.8288
_cell_angle_beta     90.1466
_cell_angle_gamma    90.1951

_symmetry_space_group_name_H-M    "P 1"
_symmetry_int_tables_number       1

loop_
  _symmetry_equiv_pos_as_xyz
  'x, y, z'

loop_
  _atom_site_label
  _atom_site_occupancy
  _atom_site_fract_x
  _atom_site_fract_y
  _atom_site_fract_z
  _atom_site_thermal_displace_type
  _atom_site_B_iso_or_equiv
  _atom_site_type_symbol
  Hf1      1.0000 0.13572  0.02349  0.11871  Biso   1.000  Hf
  Hf2      1.0000 0.13437  0.22831  0.38608  Biso   1.000  Hf
  Hf3      1.0000 0.36736  0.26081  0.11883  Biso   1.000  Hf
  Hf4      1.0000 0.36773  0.48208  0.37367  Biso   1.000  Hf
  O1       1.0000 0.00509  0.17426  0.22763  Biso   1.000  O
  O2       1.0000 0.03585  0.06239  0.45368  Biso   1.000  O
  O3       1.0000 0.46336  0.43195  0.19450  Biso   1.000  O
  O4       1.0000 0.46488  0.31672  0.44713  Biso   1.000  O
  O5       1.0000 0.26588  0.11168  0.25262  Biso   1.000  O
  O6       1.0000 0.27316  0.13066  0.50169  Biso   1.000  O
  O7       1.0000 0.23210  0.38315  0.50164  Biso   1.000  O
  O8       1.0000 0.23473  0.35471  0.25559  Biso   1.000  O
  Hf5      1.0000 0.13545  0.01298  0.62740  Biso   1.000  Hf
  Hf6      1.0000 0.14462  0.22277  0.86982  Biso   1.000  Hf
  Hf7      1.0000 0.36861  0.26651  0.62609  Biso   1.000  Hf
  Hf8      1.0000 0.36885  0.48636  0.87283  Biso   1.000  Hf
  O9       1.0000 0.03717  0.18039  0.69303  Biso   1.000  O
  O10      1.0000 0.03966  0.06083  0.93736  Biso   1.000  O
  O11      1.0000 0.46738  0.43321  0.69568  Biso   1.000  O
  O12      1.0000 0.46524  0.31536  0.93980  Biso   1.000  O
  O13      1.0000 0.27469  0.11300  0.74584  Biso   1.000  O
  O14      1.0000 0.29307  0.11975  0.98881  Biso   1.000  O
  O15      1.0000 0.23606  0.39782  0.00177  Biso   1.000  O
  O16      1.0000 0.23344  0.36520  0.75036  Biso   1.000  O
  Hf9      1.0000 0.12835  0.54260  0.11834  Biso   1.000  Hf
  Hf10     1.0000 0.13514  0.73592  0.37856  Biso   1.000  Hf
  Hf11     1.0000 0.36508  0.76846  0.12677  Biso   1.000  Hf
  Hf12     1.0000 0.36496  0.98261  0.37567  Biso   1.000  Hf
  O17      1.0000 0.03134  0.69349  0.20102  Biso   1.000  O
  O18      1.0000 0.03495  0.56828  0.44669  Biso   1.000  O
  O19      1.0000 0.46353  0.93296  0.19561  Biso   1.000  O
  O20      1.0000 0.46468  0.81432  0.44316  Biso   1.000  O
  O21      1.0000 0.27051  0.61888  0.24890  Biso   1.000  O
  O22      1.0000 0.27141  0.63136  0.49819  Biso   1.000  O
  O23      1.0000 0.23111  0.88155  0.50020  Biso   1.000  O
  O24      1.0000 0.22997  0.86645  0.24993  Biso   1.000  O
  Hf13     1.0000 0.13397  0.51468  0.62531  Biso   1.000  Hf
  Hf14     1.0000 0.13244  0.73944  0.87010  Biso   1.000  Hf
  Hf15     1.0000 0.36972  0.76316  0.62281  Biso   1.000  Hf
  Hf16     1.0000 0.37232  0.97710  0.87278  Biso   1.000  Hf
  O25      1.0000 0.03745  0.68394  0.69041  Biso   1.000  O
  O26      1.0000 0.03291  0.57238  0.94120  Biso   1.000  O
  O27      1.0000 0.46937  0.92987  0.69099  Biso   1.000  O
  O28      1.0000 0.46908  0.81553  0.94789  Biso   1.000  O
  O29      1.0000 0.26990  0.61521  0.74742  Biso   1.000  O
  O30      1.0000 0.26948  0.64318  0.99415  Biso   1.000  O
  O31      1.0000 0.22978  0.88397  0.99901  Biso   1.000  O
  O32      1.0000 0.23577  0.86443  0.74729  Biso   1.000  O
  Hf17     1.0000 0.63029  0.01297  0.12355  Biso   1.000  Hf
  Hf18     1.0000 0.63037  0.23080  0.37785  Biso   1.000  Hf
  Hf19     1.0000 0.84484  0.26321  0.12867  Biso   1.000  Hf
  Hf20     1.0000 0.86617  0.48495  0.37782  Biso   1.000  Hf
  O33      1.0000 0.53224  0.17925  0.19618  Biso   1.000  O
  O34      1.0000 0.53492  0.06469  0.44638  Biso   1.000  O
  O35      1.0000 0.95508  0.44649  0.19555  Biso   1.000  O
  O36      1.0000 0.96846  0.32108  0.45136  Biso   1.000  O
  O37      1.0000 0.75833  0.11333  0.25033  Biso   1.000  O
  O38      1.0000 0.77215  0.13409  0.49778  Biso   1.000  O
  O39      1.0000 0.73093  0.38214  0.50178  Biso   1.000  O
  O40      1.0000 0.72316  0.36820  0.25392  Biso   1.000  O
  Hf21     1.0000 0.63698  0.01514  0.62376  Biso   1.000  Hf
  Hf22     1.0000 0.63278  0.23111  0.87241  Biso   1.000  Hf
  Hf23     1.0000 0.86838  0.26610  0.62613  Biso   1.000  Hf
  Hf24     1.0000 0.86419  0.48260  0.87729  Biso   1.000  Hf
  O41      1.0000 0.53888  0.18304  0.69191  Biso   1.000  O
  O42      1.0000 0.54341  0.06224  0.93871  Biso   1.000  O
  O43      1.0000 0.96713  0.43193  0.70194  Biso   1.000  O
  O44      1.0000 0.96943  0.31226  0.95167  Biso   1.000  O
  O45      1.0000 0.77288  0.11560  0.74821  Biso   1.000  O
  O46      1.0000 0.77073  0.13067  0.99868  Biso   1.000  O
  O47      1.0000 0.72609  0.38186  0.00037  Biso   1.000  O
  O48      1.0000 0.73325  0.36577  0.75139  Biso   1.000  O
  Hf25     1.0000 0.63141  0.51771  0.12805  Biso   1.000  Hf
  Hf26     1.0000 0.63431  0.73373  0.37526  Biso   1.000  Hf
  Hf27     1.0000 0.86300  0.76926  0.12583  Biso   1.000  Hf
  Hf28     1.0000 0.86902  0.98606  0.37161  Biso   1.000  Hf
  O49      1.0000 0.53421  0.68306  0.19591  Biso   1.000  O
  O50      1.0000 0.53503  0.56543  0.44567  Biso   1.000  O
  O51      1.0000 0.96364  0.93703  0.19039  Biso   1.000  O
  O52      1.0000 0.96473  0.81806  0.44433  Biso   1.000  O
  O53      1.0000 0.76766  0.61855  0.25155  Biso   1.000  O
  O54      1.0000 0.76898  0.63344  0.50059  Biso   1.000  O
  O55      1.0000 0.73264  0.88442  0.49742  Biso   1.000  O
  O56      1.0000 0.72897  0.86689  0.24864  Biso   1.000  O
  Hf29     1.0000 0.63597  0.51500  0.62530  Biso   1.000  Hf
  Hf30     1.0000 0.63606  0.73236  0.87549  Biso   1.000  Hf
  Hf31     1.0000 0.86780  0.76653  0.62363  Biso   1.000  Hf
  Hf32     1.0000 0.86638  0.98154  0.87476  Biso   1.000  Hf
  O57      1.0000 0.53704  0.68114  0.69632  Biso   1.000  O
  O58      1.0000 0.53580  0.56684  0.94648  Biso   1.000  O
  O59      1.0000 0.96814  0.92926  0.69879  Biso   1.000  O
  O60      1.0000 0.96338  0.81511  0.94525  Biso   1.000  O
  O61      1.0000 0.77214  0.61506  0.75055  Biso   1.000  O
  O62      1.0000 0.77018  0.63163  0.00060  Biso   1.000  O
  O63      1.0000 0.73024  0.88135  0.99866  Biso   1.000  O
  O64      1.0000 0.73233  0.86515  0.74832  Biso   1.000  O
  Os1      1.0000 0.09882  0.30397  0.11151  Biso   1.000  Os
