data_image0
_cell_length_a       9.95056
_cell_length_b       10.3455
_cell_length_c       9.98658
_cell_angle_alpha    89.8788
_cell_angle_beta     89.9661
_cell_angle_gamma    90.029

_symmetry_space_group_name_H-M    "P 1"
_symmetry_int_tables_number       1

loop_
  _symmetry_equiv_pos_as_xyz
  'x, y, z'

loop_
  _atom_site_label
  _atom_site_occupancy
  _atom_site_fract_x
  _atom_site_fract_y
  _atom_site_fract_z
  _atom_site_thermal_displace_type
  _atom_site_B_iso_or_equiv
  _atom_site_type_symbol
  Os1      1.0000 0.13787  0.02122  0.12018  Biso   1.000  Os
  Hf1      1.0000 0.13252  0.23180  0.37515  Biso   1.000  Hf
  Hf2      1.0000 0.36652  0.26744  0.12608  Biso   1.000  Hf
  Hf3      1.0000 0.36601  0.48439  0.37631  Biso   1.000  Hf
  O1       1.0000 0.03479  0.17799  0.19782  Biso   1.000  O
  O2       1.0000 0.03451  0.06757  0.45129  Biso   1.000  O
  O3       1.0000 0.46357  0.43504  0.19360  Biso   1.000  O
  O4       1.0000 0.46337  0.31646  0.44382  Biso   1.000  O
  O5       1.0000 0.26706  0.11689  0.24596  Biso   1.000  O
  O6       1.0000 0.27093  0.13258  0.49848  Biso   1.000  O
  O7       1.0000 0.22923  0.38243  0.50004  Biso   1.000  O
  O8       1.0000 0.23016  0.36813  0.25050  Biso   1.000  O
  Hf4      1.0000 0.13455  0.01632  0.62747  Biso   1.000  Hf
  Hf5      1.0000 0.13516  0.23373  0.87825  Biso   1.000  Hf
  Hf6      1.0000 0.36590  0.26680  0.62579  Biso   1.000  Hf
  Hf7      1.0000 0.36585  0.48396  0.87570  Biso   1.000  Hf
  O9       1.0000 0.03433  0.18174  0.70182  Biso   1.000  O
  O10      1.0000 0.03567  0.06568  0.95857  Biso   1.000  O
  O11      1.0000 0.46310  0.43476  0.69362  Biso   1.000  O
  O12      1.0000 0.46155  0.31390  0.94316  Biso   1.000  O
  O13      1.0000 0.27100  0.11815  0.75075  Biso   1.000  O
  O14      1.0000 0.27227  0.12713  0.00142  Biso   1.000  O
  O15      1.0000 0.22898  0.38117  0.00038  Biso   1.000  O
  O16      1.0000 0.22872  0.36715  0.75063  Biso   1.000  O
  Hf8      1.0000 0.13475  0.51642  0.12692  Biso   1.000  Hf
  Hf9      1.0000 0.13339  0.73560  0.37500  Biso   1.000  Hf
  Hf10     1.0000 0.36415  0.76859  0.12649  Biso   1.000  Hf
  Hf11     1.0000 0.36480  0.98397  0.37476  Biso   1.000  Hf
  O17      1.0000 0.03713  0.68260  0.19384  Biso   1.000  O
  O18      1.0000 0.03632  0.56669  0.44344  Biso   1.000  O
  O19      1.0000 0.46415  0.93391  0.19477  Biso   1.000  O
  O20      1.0000 0.46295  0.81589  0.44220  Biso   1.000  O
  O21      1.0000 0.27162  0.62061  0.25005  Biso   1.000  O
  O22      1.0000 0.27014  0.63291  0.49926  Biso   1.000  O
  O23      1.0000 0.22950  0.88273  0.49978  Biso   1.000  O
  O24      1.0000 0.22471  0.87439  0.24754  Biso   1.000  O
  Hf12     1.0000 0.13355  0.51645  0.62533  Biso   1.000  Hf
  Hf13     1.0000 0.13320  0.73281  0.87609  Biso   1.000  Hf
  Hf14     1.0000 0.36628  0.76625  0.62528  Biso   1.000  Hf
  Hf15     1.0000 0.36584  0.98196  0.87652  Biso   1.000  Hf
  O25      1.0000 0.03594  0.68399  0.69395  Biso   1.000  O
  O26      1.0000 0.03644  0.56464  0.94505  Biso   1.000  O
  O27      1.0000 0.46335  0.93440  0.69331  Biso   1.000  O
  O28      1.0000 0.46179  0.81464  0.94413  Biso   1.000  O
  O29      1.0000 0.27030  0.61735  0.74938  Biso   1.000  O
  O30      1.0000 0.27122  0.63184  0.99975  Biso   1.000  O
  O31      1.0000 0.22479  0.88207  0.00185  Biso   1.000  O
  O32      1.0000 0.23018  0.86683  0.75048  Biso   1.000  O
  Hf16     1.0000 0.63379  0.01637  0.12560  Biso   1.000  Hf
  Hf17     1.0000 0.63391  0.23383  0.37620  Biso   1.000  Hf
  Hf18     1.0000 0.86667  0.26460  0.12626  Biso   1.000  Hf
  Hf19     1.0000 0.86601  0.48369  0.37603  Biso   1.000  Hf
  O33      1.0000 0.53518  0.18413  0.19450  Biso   1.000  O
  O34      1.0000 0.53554  0.06604  0.44347  Biso   1.000  O
  O35      1.0000 0.96552  0.43117  0.19538  Biso   1.000  O
  O36      1.0000 0.96418  0.31605  0.44571  Biso   1.000  O
  O37      1.0000 0.76860  0.11798  0.24949  Biso   1.000  O
  O38      1.0000 0.77063  0.13300  0.49915  Biso   1.000  O
  O39      1.0000 0.72941  0.38258  0.49996  Biso   1.000  O
  O40      1.0000 0.72989  0.36780  0.24968  Biso   1.000  O
  Hf20     1.0000 0.63402  0.01626  0.62452  Biso   1.000  Hf
  Hf21     1.0000 0.63349  0.23320  0.87542  Biso   1.000  Hf
  Hf22     1.0000 0.86617  0.26556  0.62653  Biso   1.000  Hf
  Hf23     1.0000 0.86570  0.48322  0.87617  Biso   1.000  Hf
  O41      1.0000 0.53675  0.18478  0.69298  Biso   1.000  O
  O42      1.0000 0.53656  0.06479  0.94342  Biso   1.000  O
  O43      1.0000 0.96355  0.43372  0.69430  Biso   1.000  O
  O44      1.0000 0.96393  0.31471  0.94473  Biso   1.000  O
  O45      1.0000 0.76999  0.11704  0.74972  Biso   1.000  O
  O46      1.0000 0.77016  0.13221  0.99937  Biso   1.000  O
  O47      1.0000 0.72913  0.38144  0.99992  Biso   1.000  O
  O48      1.0000 0.72945  0.36743  0.74964  Biso   1.000  O
  Hf24     1.0000 0.63500  0.51720  0.12610  Biso   1.000  Hf
  Hf25     1.0000 0.63492  0.73475  0.37423  Biso   1.000  Hf
  Hf26     1.0000 0.86966  0.76828  0.12457  Biso   1.000  Hf
  Hf27     1.0000 0.86995  0.98532  0.37255  Biso   1.000  Hf
  O49      1.0000 0.53697  0.68539  0.19254  Biso   1.000  O
  O50      1.0000 0.53684  0.56668  0.44356  Biso   1.000  O
  O51      1.0000 0.97049  0.93393  0.19203  Biso   1.000  O
  O52      1.0000 0.96437  0.81679  0.44505  Biso   1.000  O
  O53      1.0000 0.77170  0.61811  0.24956  Biso   1.000  O
  O54      1.0000 0.77070  0.63304  0.49957  Biso   1.000  O
  O55      1.0000 0.73041  0.88353  0.49766  Biso   1.000  O
  O56      1.0000 0.73340  0.86860  0.24767  Biso   1.000  O
  Hf28     1.0000 0.63420  0.51681  0.62560  Biso   1.000  Hf
  Hf29     1.0000 0.63405  0.73321  0.87610  Biso   1.000  Hf
  Hf30     1.0000 0.86588  0.76717  0.62583  Biso   1.000  Hf
  Hf31     1.0000 0.86567  0.98347  0.87664  Biso   1.000  Hf
  O57      1.0000 0.53660  0.68470  0.69395  Biso   1.000  O
  O58      1.0000 0.53725  0.56442  0.94292  Biso   1.000  O
  O59      1.0000 0.96499  0.93390  0.69709  Biso   1.000  O
  O60      1.0000 0.96166  0.81465  0.94108  Biso   1.000  O
  O61      1.0000 0.77053  0.61778  0.74977  Biso   1.000  O
  O62      1.0000 0.77120  0.63215  0.99967  Biso   1.000  O
  O63      1.0000 0.72860  0.88251  0.99839  Biso   1.000  O
  O64      1.0000 0.72927  0.86816  0.74929  Biso   1.000  O
