data_image0
_cell_length_a       10.0946
_cell_length_b       10.244
_cell_length_c       5.21208
_cell_angle_alpha    89.8157
_cell_angle_beta     80.0646
_cell_angle_gamma    90.0314

_symmetry_space_group_name_H-M    "P 1"
_symmetry_int_tables_number       1

loop_
  _symmetry_equiv_pos_as_xyz
  'x, y, z'

loop_
  _atom_site_label
  _atom_site_occupancy
  _atom_site_fract_x
  _atom_site_fract_y
  _atom_site_fract_z
  _atom_site_thermal_displace_type
  _atom_site_B_iso_or_equiv
  _atom_site_type_symbol
  Os1      1.0000 0.14118  0.02124  0.30110  Biso   1.000  Os
  Hf1      1.0000 0.13827  0.22717  0.79570  Biso   1.000  Hf
  Hf2      1.0000 0.35926  0.27105  0.21336  Biso   1.000  Hf
  Hf3      1.0000 0.36072  0.47901  0.70912  Biso   1.000  Hf
  O1       1.0000 0.03404  0.16210  0.15006  Biso   1.000  O
  O2       1.0000 0.03735  0.08549  0.63284  Biso   1.000  O
  O3       1.0000 0.46346  0.42027  0.33852  Biso   1.000  O
  O4       1.0000 0.46059  0.32725  0.83895  Biso   1.000  O
  O5       1.0000 0.27887  0.12642  0.48873  Biso   1.000  O
  O6       1.0000 0.27290  0.11582  0.00133  Biso   1.000  O
  O7       1.0000 0.22247  0.37807  0.02070  Biso   1.000  O
  O8       1.0000 0.22295  0.37088  0.52055  Biso   1.000  O
  Hf4      1.0000 0.13906  0.52165  0.29248  Biso   1.000  Hf
  Hf5      1.0000 0.13838  0.72992  0.79076  Biso   1.000  Hf
  Hf6      1.0000 0.35931  0.77427  0.20696  Biso   1.000  Hf
  Hf7      1.0000 0.35939  0.97760  0.70937  Biso   1.000  Hf
  O9       1.0000 0.03508  0.66758  0.15686  Biso   1.000  O
  O10      1.0000 0.03513  0.58187  0.65931  Biso   1.000  O
  O11      1.0000 0.46504  0.91803  0.34264  Biso   1.000  O
  O12      1.0000 0.46364  0.82942  0.83763  Biso   1.000  O
  O13      1.0000 0.27689  0.63095  0.48212  Biso   1.000  O
  O14      1.0000 0.27655  0.62157  0.98134  Biso   1.000  O
  O15      1.0000 0.22012  0.88074  0.01613  Biso   1.000  O
  O16      1.0000 0.21941  0.87349  0.51138  Biso   1.000  O
  Hf8      1.0000 0.63804  0.02171  0.29205  Biso   1.000  Hf
  Hf9      1.0000 0.63786  0.22899  0.79254  Biso   1.000  Hf
  Hf10     1.0000 0.86357  0.26942  0.20845  Biso   1.000  Hf
  Hf11     1.0000 0.86073  0.47851  0.70842  Biso   1.000  Hf
  O17      1.0000 0.53604  0.17091  0.16508  Biso   1.000  O
  O18      1.0000 0.53505  0.07925  0.66552  Biso   1.000  O
  O19      1.0000 0.96493  0.41811  0.34119  Biso   1.000  O
  O20      1.0000 0.96530  0.33048  0.84052  Biso   1.000  O
  O21      1.0000 0.77534  0.12896  0.48084  Biso   1.000  O
  O22      1.0000 0.77658  0.12077  0.97799  Biso   1.000  O
  O23      1.0000 0.72361  0.37905  0.01902  Biso   1.000  O
  O24      1.0000 0.72325  0.37077  0.51914  Biso   1.000  O
  Hf12     1.0000 0.63931  0.52180  0.29187  Biso   1.000  Hf
  Hf13     1.0000 0.63930  0.72837  0.79339  Biso   1.000  Hf
  Hf14     1.0000 0.86359  0.77334  0.20622  Biso   1.000  Hf
  Hf15     1.0000 0.86082  0.98034  0.70480  Biso   1.000  Hf
  O25      1.0000 0.53541  0.67000  0.16174  Biso   1.000  O
  O26      1.0000 0.53679  0.57890  0.66392  Biso   1.000  O
  O27      1.0000 0.97312  0.92071  0.33225  Biso   1.000  O
  O28      1.0000 0.96491  0.83394  0.83765  Biso   1.000  O
  O29      1.0000 0.77706  0.62999  0.48140  Biso   1.000  O
  O30      1.0000 0.77794  0.62205  0.98213  Biso   1.000  O
  O31      1.0000 0.72292  0.87956  0.01852  Biso   1.000  O
  O32      1.0000 0.72845  0.87220  0.51743  Biso   1.000  O
