data_image0
_cell_length_a       10.095
_cell_length_b       10.342
_cell_length_c       5.25264
_cell_angle_alpha    90.7551
_cell_angle_beta     91.3569
_cell_angle_gamma    88.9392

_symmetry_space_group_name_H-M    "P 1"
_symmetry_int_tables_number       1

loop_
  _symmetry_equiv_pos_as_xyz
  'x, y, z'

loop_
  _atom_site_label
  _atom_site_occupancy
  _atom_site_fract_x
  _atom_site_fract_y
  _atom_site_fract_z
  _atom_site_thermal_displace_type
  _atom_site_B_iso_or_equiv
  _atom_site_type_symbol
  Hf1      1.0000 0.13444  0.01661  0.35552  Biso   1.000  Hf
  Hf2      1.0000 0.13767  0.22711  0.86411  Biso   1.000  Hf
  Hf3      1.0000 0.34377  0.25260  0.37589  Biso   1.000  Hf
  Hf4      1.0000 0.36402  0.48486  0.83614  Biso   1.000  Hf
  Hf5      1.0000 0.64004  0.01786  0.16557  Biso   1.000  Hf
  Hf6      1.0000 0.63993  0.23038  0.64970  Biso   1.000  Hf
  Hf7      1.0000 0.85837  0.27229  0.15408  Biso   1.000  Hf
  Hf8      1.0000 0.86959  0.47986  0.65317  Biso   1.000  Hf
  O1       1.0000 0.03179  0.16725  0.18075  Biso   1.000  O
  O2       1.0000 0.03268  0.08287  0.67873  Biso   1.000  O
  O3       1.0000 0.48666  0.43282  0.14767  Biso   1.000  O
  O4       1.0000 0.47378  0.34559  0.62636  Biso   1.000  O
  O5       1.0000 0.26987  0.11906  0.61448  Biso   1.000  O
  O6       1.0000 0.26657  0.11188  0.11099  Biso   1.000  O
  O7       1.0000 0.22190  0.37320  0.61098  Biso   1.000  O
  O8       1.0000 0.23167  0.37360  0.10876  Biso   1.000  O
  O9       1.0000 0.51892  0.11990  0.40516  Biso   1.000  O
  O10      1.0000 0.52542  0.08470  0.86466  Biso   1.000  O
  O11      1.0000 0.97015  0.41614  0.32980  Biso   1.000  O
  O12      1.0000 0.97086  0.33355  0.83642  Biso   1.000  O
  O13      1.0000 0.77632  0.12492  0.90488  Biso   1.000  O
  O14      1.0000 0.77757  0.12770  0.40633  Biso   1.000  O
  O15      1.0000 0.73913  0.38944  0.90050  Biso   1.000  O
  O16      1.0000 0.72914  0.38069  0.40840  Biso   1.000  O
  Hf9      1.0000 0.14069  0.51880  0.34187  Biso   1.000  Hf
  Hf10     1.0000 0.14075  0.72858  0.84387  Biso   1.000  Hf
  Hf11     1.0000 0.36499  0.76909  0.34443  Biso   1.000  Hf
  Hf12     1.0000 0.36191  0.97164  0.85776  Biso   1.000  Hf
  Hf13     1.0000 0.65716  0.53518  0.14445  Biso   1.000  Hf
  Hf14     1.0000 0.64293  0.73219  0.65217  Biso   1.000  Hf
  Hf15     1.0000 0.86715  0.77401  0.15735  Biso   1.000  Hf
  Hf16     1.0000 0.86220  0.98118  0.66375  Biso   1.000  Hf
  O17      1.0000 0.03830  0.66596  0.16779  Biso   1.000  O
  O18      1.0000 0.03985  0.58352  0.66831  Biso   1.000  O
  O19      1.0000 0.47319  0.90070  0.15766  Biso   1.000  O
  O20      1.0000 0.47089  0.83793  0.65849  Biso   1.000  O
  O21      1.0000 0.28050  0.62230  0.58485  Biso   1.000  O
  O22      1.0000 0.27870  0.62169  0.08632  Biso   1.000  O
  O23      1.0000 0.22509  0.87000  0.59706  Biso   1.000  O
  O24      1.0000 0.22555  0.87028  0.09951  Biso   1.000  O
  O25      1.0000 0.53932  0.66552  0.33189  Biso   1.000  O
  O26      1.0000 0.53743  0.59244  0.82596  Biso   1.000  O
  O27      1.0000 0.96662  0.91731  0.33638  Biso   1.000  O
  O28      1.0000 0.97035  0.83586  0.83612  Biso   1.000  O
  O29      1.0000 0.78419  0.63205  0.90083  Biso   1.000  O
  O30      1.0000 0.78613  0.63143  0.40568  Biso   1.000  O
  O31      1.0000 0.72829  0.87715  0.91282  Biso   1.000  O
  O32      1.0000 0.72877  0.87598  0.41429  Biso   1.000  O
  P1       1.0000 0.51761  0.27461  0.07187  Biso   1.000  P
