data_image0
_cell_length_a       10.3241
_cell_length_b       10.479
_cell_length_c       5.25894
_cell_angle_alpha    88.7099
_cell_angle_beta     78.2334
_cell_angle_gamma    88.8276

_symmetry_space_group_name_H-M    "P 1"
_symmetry_int_tables_number       1

loop_
  _symmetry_equiv_pos_as_xyz
  'x, y, z'

loop_
  _atom_site_label
  _atom_site_occupancy
  _atom_site_fract_x
  _atom_site_fract_y
  _atom_site_fract_z
  _atom_site_thermal_displace_type
  _atom_site_B_iso_or_equiv
  _atom_site_type_symbol
  Hf1      1.0000 0.12952  0.01449  0.28491  Biso   1.000  Hf
  Hf2      1.0000 0.12978  0.22547  0.76836  Biso   1.000  Hf
  Hf3      1.0000 0.33018  0.25880  0.17025  Biso   1.000  Hf
  Hf4      1.0000 0.36197  0.49065  0.71338  Biso   1.000  Hf
  O1       1.0000 0.03811  0.17254  0.16249  Biso   1.000  O
  O2       1.0000 0.02783  0.07759  0.66425  Biso   1.000  O
  O3       1.0000 0.46447  0.45644  0.34913  Biso   1.000  O
  O4       1.0000 0.47124  0.35440  0.90168  Biso   1.000  O
  O5       1.0000 0.25874  0.11514  0.45588  Biso   1.000  O
  O6       1.0000 0.26789  0.11750  0.94949  Biso   1.000  O
  O7       1.0000 0.21442  0.38247  0.98574  Biso   1.000  O
  O8       1.0000 0.21190  0.36479  0.48667  Biso   1.000  O
  Hf5      1.0000 0.13812  0.52026  0.29390  Biso   1.000  Hf
  Hf6      1.0000 0.13375  0.72719  0.79589  Biso   1.000  Hf
  Hf7      1.0000 0.35760  0.76839  0.20678  Biso   1.000  Hf
  Hf8      1.0000 0.35363  0.96625  0.69510  Biso   1.000  Hf
  O9       1.0000 0.03090  0.66814  0.16461  Biso   1.000  O
  O10      1.0000 0.03581  0.58235  0.66233  Biso   1.000  O
  O11      1.0000 0.45727  0.91504  0.32265  Biso   1.000  O
  O12      1.0000 0.45518  0.81832  0.83272  Biso   1.000  O
  O13      1.0000 0.27116  0.62776  0.48851  Biso   1.000  O
  O14      1.0000 0.27241  0.62283  0.98970  Biso   1.000  O
  O15      1.0000 0.21817  0.87591  0.01558  Biso   1.000  O
  O16      1.0000 0.21764  0.86486  0.51266  Biso   1.000  O
  Hf9      1.0000 0.63238  0.00935  0.29685  Biso   1.000  Hf
  Hf10     1.0000 0.66415  0.24119  0.83994  Biso   1.000  Hf
  Hf11     1.0000 0.86456  0.27453  0.24183  Biso   1.000  Hf
  Hf12     1.0000 0.86482  0.48550  0.72529  Biso   1.000  Hf
  O17      1.0000 0.52310  0.14559  0.10853  Biso   1.000  O
  O18      1.0000 0.52986  0.04359  0.66107  Biso   1.000  O
  O19      1.0000 0.96650  0.42241  0.34595  Biso   1.000  O
  O20      1.0000 0.95622  0.32746  0.84772  Biso   1.000  O
  O21      1.0000 0.78243  0.13519  0.52350  Biso   1.000  O
  O22      1.0000 0.77992  0.11753  0.02443  Biso   1.000  O
  O23      1.0000 0.72643  0.38248  0.06073  Biso   1.000  O
  O24      1.0000 0.73561  0.38486  0.55434  Biso   1.000  O
  Hf13     1.0000 0.64071  0.53375  0.31511  Biso   1.000  Hf
  Hf14     1.0000 0.63675  0.73161  0.80342  Biso   1.000  Hf
  Hf15     1.0000 0.86059  0.77281  0.21431  Biso   1.000  Hf
  Hf16     1.0000 0.85622  0.97974  0.71631  Biso   1.000  Hf
  O25      1.0000 0.53917  0.68169  0.17748  Biso   1.000  O
  O26      1.0000 0.53707  0.58496  0.68758  Biso   1.000  O
  O27      1.0000 0.95853  0.91764  0.34787  Biso   1.000  O
  O28      1.0000 0.96344  0.83185  0.84558  Biso   1.000  O
  O29      1.0000 0.77670  0.63514  0.49754  Biso   1.000  O
  O30      1.0000 0.77618  0.62409  0.99464  Biso   1.000  O
  O31      1.0000 0.72193  0.87716  0.02051  Biso   1.000  O
  O32      1.0000 0.72318  0.87224  0.52170  Biso   1.000  O
  Pb1      1.0000 0.49718  0.25002  0.50506  Biso   1.000  Pb
