data_image0
_cell_length_a       9.9732
_cell_length_b       10.4125
_cell_length_c       10.0608
_cell_angle_alpha    89.7342
_cell_angle_beta     90.7743
_cell_angle_gamma    89.9789

_symmetry_space_group_name_H-M    "P 1"
_symmetry_int_tables_number       1

loop_
  _symmetry_equiv_pos_as_xyz
  'x, y, z'

loop_
  _atom_site_label
  _atom_site_occupancy
  _atom_site_fract_x
  _atom_site_fract_y
  _atom_site_fract_z
  _atom_site_thermal_displace_type
  _atom_site_B_iso_or_equiv
  _atom_site_type_symbol
  Hf1      1.0000 0.13270  0.01784  0.12330  Biso   1.000  Hf
  Hf2      1.0000 0.13279  0.23276  0.38032  Biso   1.000  Hf
  Hf3      1.0000 0.36599  0.26836  0.12371  Biso   1.000  Hf
  Hf4      1.0000 0.36628  0.48272  0.37688  Biso   1.000  Hf
  O1       1.0000 0.02073  0.17512  0.20988  Biso   1.000  O
  O2       1.0000 0.04186  0.05793  0.43836  Biso   1.000  O
  O3       1.0000 0.46429  0.43530  0.19754  Biso   1.000  O
  O4       1.0000 0.46281  0.31551  0.44732  Biso   1.000  O
  O5       1.0000 0.26711  0.11977  0.24537  Biso   1.000  O
  O6       1.0000 0.27384  0.13089  0.49593  Biso   1.000  O
  O7       1.0000 0.22963  0.38210  0.50106  Biso   1.000  O
  O8       1.0000 0.23007  0.36779  0.25364  Biso   1.000  O
  Hf5      1.0000 0.13446  0.00557  0.61793  Biso   1.000  Hf
  Hf6      1.0000 0.13881  0.21662  0.84529  Biso   1.000  Hf
  Hf7      1.0000 0.36953  0.26549  0.62433  Biso   1.000  Hf
  Hf8      1.0000 0.37100  0.48569  0.87451  Biso   1.000  Hf
  O9       1.0000 0.04578  0.17709  0.66689  Biso   1.000  O
  O10      1.0000 0.03854  0.06070  0.93858  Biso   1.000  O
  O11      1.0000 0.46314  0.43382  0.69249  Biso   1.000  O
  O12      1.0000 0.47175  0.31673  0.94535  Biso   1.000  O
  O13      1.0000 0.27599  0.10744  0.73975  Biso   1.000  O
  O14      1.0000 0.27821  0.13116  0.99189  Biso   1.000  O
  O15      1.0000 0.24741  0.39710  0.00532  Biso   1.000  O
  O16      1.0000 0.23191  0.36553  0.74877  Biso   1.000  O
  Hf9      1.0000 0.13536  0.52469  0.12996  Biso   1.000  Hf
  Hf10     1.0000 0.13598  0.73487  0.37617  Biso   1.000  Hf
  Hf11     1.0000 0.36573  0.76780  0.12760  Biso   1.000  Hf
  Hf12     1.0000 0.36611  0.98490  0.37455  Biso   1.000  Hf
  O17      1.0000 0.03787  0.68721  0.19556  Biso   1.000  O
  O18      1.0000 0.04111  0.56782  0.44012  Biso   1.000  O
  O19      1.0000 0.46312  0.93547  0.19633  Biso   1.000  O
  O20      1.0000 0.46588  0.81646  0.44500  Biso   1.000  O
  O21      1.0000 0.27452  0.62103  0.25289  Biso   1.000  O
  O22      1.0000 0.27214  0.63216  0.50154  Biso   1.000  O
  O23      1.0000 0.23490  0.87976  0.49713  Biso   1.000  O
  O24      1.0000 0.22892  0.86971  0.24856  Biso   1.000  O
  Hf13     1.0000 0.13551  0.51806  0.62351  Biso   1.000  Hf
  Hf14     1.0000 0.13441  0.73502  0.87568  Biso   1.000  Hf
  Hf15     1.0000 0.36990  0.76504  0.62697  Biso   1.000  Hf
  Hf16     1.0000 0.37014  0.98113  0.87691  Biso   1.000  Hf
  O25      1.0000 0.03906  0.68559  0.69483  Biso   1.000  O
  O26      1.0000 0.03695  0.56397  0.94423  Biso   1.000  O
  O27      1.0000 0.46942  0.93030  0.69743  Biso   1.000  O
  O28      1.0000 0.46687  0.81592  0.94928  Biso   1.000  O
  O29      1.0000 0.27144  0.61679  0.75141  Biso   1.000  O
  O30      1.0000 0.26956  0.63879  0.00167  Biso   1.000  O
  O31      1.0000 0.23080  0.88463  0.99963  Biso   1.000  O
  O32      1.0000 0.23406  0.86350  0.74923  Biso   1.000  O
  Hf17     1.0000 0.63116  0.01410  0.12822  Biso   1.000  Hf
  Hf18     1.0000 0.63123  0.23078  0.38790  Biso   1.000  Hf
  Hf19     1.0000 0.83845  0.26119  0.15146  Biso   1.000  Hf
  Hf20     1.0000 0.86764  0.48251  0.38620  Biso   1.000  Hf
  O33      1.0000 0.53720  0.18491  0.19660  Biso   1.000  O
  O34      1.0000 0.53551  0.06485  0.45035  Biso   1.000  O
  O35      1.0000 0.95847  0.43649  0.20501  Biso   1.000  O
  O36      1.0000 0.96097  0.31173  0.44550  Biso   1.000  O
  O37      1.0000 0.76049  0.11247  0.26271  Biso   1.000  O
  O38      1.0000 0.77449  0.13117  0.50850  Biso   1.000  O
  O39      1.0000 0.72841  0.37819  0.50814  Biso   1.000  O
  O40      1.0000 0.71814  0.37224  0.26427  Biso   1.000  O
  Hf21     1.0000 0.63776  0.01556  0.63035  Biso   1.000  Hf
  Hf22     1.0000 0.63857  0.23348  0.87945  Biso   1.000  Hf
  Hf23     1.0000 0.86858  0.27038  0.63653  Biso   1.000  Hf
  Hf24     1.0000 0.86710  0.48428  0.87179  Biso   1.000  Hf
  O41      1.0000 0.53908  0.18313  0.69650  Biso   1.000  O
  O42      1.0000 0.54109  0.06463  0.94478  Biso   1.000  O
  O43      1.0000 0.95330  0.45032  0.66857  Biso   1.000  O
  O44      1.0000 0.95765  0.30831  0.86085  Biso   1.000  O
  O45      1.0000 0.77323  0.11741  0.75680  Biso   1.000  O
  O46      1.0000 0.77317  0.13223  0.00998  Biso   1.000  O
  O47      1.0000 0.74127  0.38057  0.00798  Biso   1.000  O
  O48      1.0000 0.72234  0.37258  0.75482  Biso   1.000  O
  Hf25     1.0000 0.63438  0.51813  0.13030  Biso   1.000  Hf
  Hf26     1.0000 0.63481  0.73294  0.37815  Biso   1.000  Hf
  Hf27     1.0000 0.86470  0.76558  0.12921  Biso   1.000  Hf
  Hf28     1.0000 0.86788  0.98078  0.37951  Biso   1.000  Hf
  O49      1.0000 0.53771  0.68482  0.19578  Biso   1.000  O
  O50      1.0000 0.53667  0.56591  0.44645  Biso   1.000  O
  O51      1.0000 0.96278  0.93384  0.19415  Biso   1.000  O
  O52      1.0000 0.96702  0.81480  0.44970  Biso   1.000  O
  O53      1.0000 0.77190  0.61773  0.25501  Biso   1.000  O
  O54      1.0000 0.77081  0.63221  0.50417  Biso   1.000  O
  O55      1.0000 0.73148  0.88171  0.50313  Biso   1.000  O
  O56      1.0000 0.73022  0.86631  0.25283  Biso   1.000  O
  Hf29     1.0000 0.63450  0.51609  0.62809  Biso   1.000  Hf
  Hf30     1.0000 0.63562  0.73352  0.87953  Biso   1.000  Hf
  Hf31     1.0000 0.86685  0.76587  0.62964  Biso   1.000  Hf
  Hf32     1.0000 0.86588  0.98067  0.88032  Biso   1.000  Hf
  O57      1.0000 0.53691  0.68145  0.69966  Biso   1.000  O
  O58      1.0000 0.53832  0.56637  0.94835  Biso   1.000  O
  O59      1.0000 0.96558  0.93306  0.69821  Biso   1.000  O
  O60      1.0000 0.96386  0.81271  0.94705  Biso   1.000  O
  O61      1.0000 0.77152  0.61966  0.75351  Biso   1.000  O
  O62      1.0000 0.77065  0.63208  0.00351  Biso   1.000  O
  O63      1.0000 0.72988  0.88183  0.00349  Biso   1.000  O
  O64      1.0000 0.73206  0.86667  0.75342  Biso   1.000  O
  Pd1      1.0000 0.05581  0.30586  0.05173  Biso   1.000  Pd
