data_image0
_cell_length_a       5.08586
_cell_length_b       10.3407
_cell_length_c       10.5204
_cell_angle_alpha    90.7208
_cell_angle_beta     80.1059
_cell_angle_gamma    90.2818

_symmetry_space_group_name_H-M    "P 1"
_symmetry_int_tables_number       1

loop_
  _symmetry_equiv_pos_as_xyz
  'x, y, z'

loop_
  _atom_site_label
  _atom_site_occupancy
  _atom_site_fract_x
  _atom_site_fract_y
  _atom_site_fract_z
  _atom_site_thermal_displace_type
  _atom_site_B_iso_or_equiv
  _atom_site_type_symbol
  Hf1      1.0000 0.27256  0.02187  0.14738  Biso   1.000  Hf
  Hf2      1.0000 0.30666  0.23192  0.40477  Biso   1.000  Hf
  Hf3      1.0000 0.71458  0.27972  0.09656  Biso   1.000  Hf
  Hf4      1.0000 0.71589  0.48039  0.34538  Biso   1.000  Hf
  O1       1.0000 0.06421  0.16773  0.07682  Biso   1.000  O
  O2       1.0000 0.10715  0.05868  0.34174  Biso   1.000  O
  O3       1.0000 0.90917  0.43900  0.15196  Biso   1.000  O
  O4       1.0000 0.97232  0.35748  0.43655  Biso   1.000  O
  O5       1.0000 0.56291  0.12978  0.23847  Biso   1.000  O
  O6       1.0000 0.54207  0.10601  0.50282  Biso   1.000  O
  O7       1.0000 0.43901  0.38311  0.00483  Biso   1.000  O
  O8       1.0000 0.41666  0.37850  0.25283  Biso   1.000  O
  Hf5      1.0000 0.26891  0.01764  0.64927  Biso   1.000  Hf
  Hf6      1.0000 0.27288  0.22888  0.89552  Biso   1.000  Hf
  Hf7      1.0000 0.72557  0.27135  0.61029  Biso   1.000  Hf
  Hf8      1.0000 0.71830  0.48054  0.85526  Biso   1.000  Hf
  O9       1.0000 0.07114  0.16883  0.58080  Biso   1.000  O
  O10      1.0000 0.06363  0.08199  0.82907  Biso   1.000  O
  O11      1.0000 0.93050  0.41661  0.67697  Biso   1.000  O
  O12      1.0000 0.92485  0.33175  0.91689  Biso   1.000  O
  O13      1.0000 0.54822  0.12959  0.74403  Biso   1.000  O
  O14      1.0000 0.54512  0.12396  0.99100  Biso   1.000  O
  O15      1.0000 0.46050  0.37712  0.51494  Biso   1.000  O
  O16      1.0000 0.44677  0.37109  0.76027  Biso   1.000  O
  Hf9      1.0000 0.26984  0.52529  0.14261  Biso   1.000  Hf
  Hf10     1.0000 0.27473  0.72453  0.39665  Biso   1.000  Hf
  Hf11     1.0000 0.71793  0.77291  0.10457  Biso   1.000  Hf
  Hf12     1.0000 0.72242  0.96656  0.36140  Biso   1.000  Hf
  O17      1.0000 0.07049  0.67871  0.07956  Biso   1.000  O
  O18      1.0000 0.05990  0.58609  0.32330  Biso   1.000  O
  O19      1.0000 0.92596  0.92130  0.17364  Biso   1.000  O
  O20      1.0000 0.92235  0.82353  0.42369  Biso   1.000  O
  O21      1.0000 0.54694  0.63108  0.24075  Biso   1.000  O
  O22      1.0000 0.54300  0.61636  0.48998  Biso   1.000  O
  O23      1.0000 0.44435  0.88277  0.01235  Biso   1.000  O
  O24      1.0000 0.45035  0.86851  0.26172  Biso   1.000  O
  Hf13     1.0000 0.27507  0.52085  0.64735  Biso   1.000  Hf
  Hf14     1.0000 0.26971  0.73130  0.89761  Biso   1.000  Hf
  Hf15     1.0000 0.71753  0.76699  0.60648  Biso   1.000  Hf
  Hf16     1.0000 0.71563  0.98003  0.85589  Biso   1.000  Hf
  O25      1.0000 0.06353  0.66305  0.57939  Biso   1.000  O
  O26      1.0000 0.06695  0.58404  0.83064  Biso   1.000  O
  O27      1.0000 0.92051  0.91612  0.67140  Biso   1.000  O
  O28      1.0000 0.92352  0.83496  0.92160  Biso   1.000  O
  O29      1.0000 0.54836  0.62806  0.74123  Biso   1.000  O
  O30      1.0000 0.54755  0.62501  0.99038  Biso   1.000  O
  O31      1.0000 0.44190  0.87054  0.51318  Biso   1.000  O
  O32      1.0000 0.44139  0.87115  0.76219  Biso   1.000  O
  Pt1      1.0000 0.84311  0.22673  0.32301  Biso   1.000  Pt
