data_image0
_cell_length_a       10.0622
_cell_length_b       5.25031
_cell_length_c       10.1223
_cell_angle_alpha    91.5059
_cell_angle_beta     89.0901
_cell_angle_gamma    90.4706

_symmetry_space_group_name_H-M    "P 1"
_symmetry_int_tables_number       1

loop_
  _symmetry_equiv_pos_as_xyz
  'x, y, z'

loop_
  _atom_site_label
  _atom_site_occupancy
  _atom_site_fract_x
  _atom_site_fract_y
  _atom_site_fract_z
  _atom_site_thermal_displace_type
  _atom_site_B_iso_or_equiv
  _atom_site_type_symbol
  Hf1      1.0000 0.11743  0.09078  0.10820  Biso   1.000  Hf
  Hf2      1.0000 0.14164  0.43809  0.39295  Biso   1.000  Hf
  Hf3      1.0000 0.38970  0.52115  0.11008  Biso   1.000  Hf
  Hf4      1.0000 0.36992  0.94271  0.37591  Biso   1.000  Hf
  O1       1.0000 0.00138  0.35532  0.22841  Biso   1.000  O
  O2       1.0000 0.03361  0.12582  0.45940  Biso   1.000  O
  O3       1.0000 0.46770  0.86944  0.18895  Biso   1.000  O
  O4       1.0000 0.47929  0.63948  0.46347  Biso   1.000  O
  O5       1.0000 0.23552  0.13053  0.26402  Biso   1.000  O
  O6       1.0000 0.27916  0.25217  0.50598  Biso   1.000  O
  O7       1.0000 0.23224  0.75627  0.50817  Biso   1.000  O
  O8       1.0000 0.29321  0.61108  0.28458  Biso   1.000  O
  Hf5      1.0000 0.13682  0.02900  0.62960  Biso   1.000  Hf
  Hf6      1.0000 0.12859  0.47644  0.86928  Biso   1.000  Hf
  Hf7      1.0000 0.36935  0.53450  0.63008  Biso   1.000  Hf
  Hf8      1.0000 0.36890  0.97843  0.87524  Biso   1.000  Hf
  O9       1.0000 0.03979  0.37776  0.68854  Biso   1.000  O
  O10      1.0000 0.02950  0.14259  0.92841  Biso   1.000  O
  O11      1.0000 0.46562  0.87518  0.69804  Biso   1.000  O
  O12      1.0000 0.47022  0.65303  0.93534  Biso   1.000  O
  O13      1.0000 0.26792  0.23899  0.75159  Biso   1.000  O
  O14      1.0000 0.27640  0.26787  0.99072  Biso   1.000  O
  O15      1.0000 0.23267  0.78784  0.00956  Biso   1.000  O
  O16      1.0000 0.23202  0.74080  0.75652  Biso   1.000  O
  Hf9      1.0000 0.63487  0.03508  0.12576  Biso   1.000  Hf
  Hf10     1.0000 0.63789  0.46556  0.37794  Biso   1.000  Hf
  Hf11     1.0000 0.85376  0.54192  0.11448  Biso   1.000  Hf
  Hf12     1.0000 0.87009  0.97413  0.37321  Biso   1.000  Hf
  O17      1.0000 0.53504  0.36183  0.20300  Biso   1.000  O
  O18      1.0000 0.53876  0.12932  0.44174  Biso   1.000  O
  O19      1.0000 0.95083  0.89226  0.18390  Biso   1.000  O
  O20      1.0000 0.97230  0.64046  0.44512  Biso   1.000  O
  O21      1.0000 0.76385  0.23061  0.24818  Biso   1.000  O
  O22      1.0000 0.77116  0.27197  0.49610  Biso   1.000  O
  O23      1.0000 0.73964  0.77204  0.49485  Biso   1.000  O
  O24      1.0000 0.72720  0.73130  0.24704  Biso   1.000  O
  Hf13     1.0000 0.63140  0.02888  0.61653  Biso   1.000  Hf
  Hf14     1.0000 0.63738  0.46620  0.86678  Biso   1.000  Hf
  Hf15     1.0000 0.87296  0.53861  0.61835  Biso   1.000  Hf
  Hf16     1.0000 0.85834  0.96681  0.86542  Biso   1.000  Hf
  O25      1.0000 0.53350  0.36227  0.69656  Biso   1.000  O
  O26      1.0000 0.53056  0.15954  0.95358  Biso   1.000  O
  O27      1.0000 0.96502  0.87293  0.69251  Biso   1.000  O
  O28      1.0000 0.94680  0.63452  0.92039  Biso   1.000  O
  O29      1.0000 0.76670  0.23049  0.74259  Biso   1.000  O
  O30      1.0000 0.76698  0.26569  0.99454  Biso   1.000  O
  O31      1.0000 0.72315  0.76735  0.99521  Biso   1.000  O
  O32      1.0000 0.72801  0.73330  0.74109  Biso   1.000  O
  Pt1      1.0000 0.11803  0.59516  0.13905  Biso   1.000  Pt
