data_image0
_cell_length_a       10.1692
_cell_length_b       10.2942
_cell_length_c       5.07319
_cell_angle_alpha    86.5415
_cell_angle_beta     92.7082
_cell_angle_gamma    91.2569

_symmetry_space_group_name_H-M    "P 1"
_symmetry_int_tables_number       1

loop_
  _symmetry_equiv_pos_as_xyz
  'x, y, z'

loop_
  _atom_site_label
  _atom_site_occupancy
  _atom_site_fract_x
  _atom_site_fract_y
  _atom_site_fract_z
  _atom_site_thermal_displace_type
  _atom_site_B_iso_or_equiv
  _atom_site_type_symbol
  Rb1      1.0000 0.14905  0.97268  0.28661  Biso   1.000  Rb
  Hf1      1.0000 0.12096  0.49678  0.25036  Biso   1.000  Hf
  Hf2      1.0000 0.63618  0.00301  0.25421  Biso   1.000  Hf
  Hf3      1.0000 0.60224  0.51404  0.30357  Biso   1.000  Hf
  Hf4      1.0000 0.13194  0.25915  0.75318  Biso   1.000  Hf
  Hf5      1.0000 0.10275  0.73334  0.74924  Biso   1.000  Hf
  Hf6      1.0000 0.64831  0.23967  0.72442  Biso   1.000  Hf
  Hf7      1.0000 0.63575  0.76486  0.80423  Biso   1.000  Hf
  Hf8      1.0000 0.39406  0.24451  0.24741  Biso   1.000  Hf
  Hf9      1.0000 0.36023  0.74330  0.18034  Biso   1.000  Hf
  Hf10     1.0000 0.89877  0.23779  0.22175  Biso   1.000  Hf
  Hf11     1.0000 0.87979  0.72657  0.25904  Biso   1.000  Hf
  Hf12     1.0000 0.38048  0.02889  0.77684  Biso   1.000  Hf
  Hf13     1.0000 0.38199  0.49035  0.78705  Biso   1.000  Hf
  Hf14     1.0000 0.89177  0.00157  0.75342  Biso   1.000  Hf
  Hf15     1.0000 0.85296  0.49736  0.78275  Biso   1.000  Hf
  O1       1.0000 0.00577  0.13815  0.98934  Biso   1.000  O
  O2       1.0000 0.98987  0.62257  0.01442  Biso   1.000  O
  O3       1.0000 0.51697  0.14563  0.00572  Biso   1.000  O
  O4       1.0000 0.49513  0.64241  0.97809  Biso   1.000  O
  O5       1.0000 0.00478  0.11763  0.52510  Biso   1.000  O
  O6       1.0000 0.98224  0.59069  0.51912  Biso   1.000  O
  O7       1.0000 0.51471  0.10441  0.50567  Biso   1.000  O
  O8       1.0000 0.44868  0.59936  0.46192  Biso   1.000  O
  O9       1.0000 0.00994  0.35159  0.45009  Biso   1.000  O
  O10      1.0000 0.96679  0.84631  0.52222  Biso   1.000  O
  O11      1.0000 0.49436  0.35713  0.55478  Biso   1.000  O
  O12      1.0000 0.51174  0.84316  0.44838  Biso   1.000  O
  O13      1.0000 0.00757  0.38781  0.95882  Biso   1.000  O
  O14      1.0000 0.97684  0.85763  0.99132  Biso   1.000  O
  O15      1.0000 0.50576  0.39447  0.05429  Biso   1.000  O
  O16      1.0000 0.50136  0.89581  0.96955  Biso   1.000  O
  O17      1.0000 0.27089  0.16909  0.52738  Biso   1.000  O
  O18      1.0000 0.19754  0.69431  0.40230  Biso   1.000  O
  O19      1.0000 0.75678  0.15097  0.46080  Biso   1.000  O
  O20      1.0000 0.72734  0.65114  0.53572  Biso   1.000  O
  O21      1.0000 0.27195  0.13366  0.00067  Biso   1.000  O
  O22      1.0000 0.24402  0.60899  0.95755  Biso   1.000  O
  O23      1.0000 0.75853  0.09184  0.97775  Biso   1.000  O
  O24      1.0000 0.74214  0.59968  0.03464  Biso   1.000  O
  O25      1.0000 0.25408  0.36737  0.06231  Biso   1.000  O
  O26      1.0000 0.24901  0.86220  0.87950  Biso   1.000  O
  O27      1.0000 0.76163  0.34120  0.98918  Biso   1.000  O
  O28      1.0000 0.72974  0.84218  0.11559  Biso   1.000  O
  O29      1.0000 0.23116  0.42530  0.56740  Biso   1.000  O
  O30      1.0000 0.38103  0.89093  0.45037  Biso   1.000  O
  O31      1.0000 0.73961  0.40141  0.50640  Biso   1.000  O
  O32      1.0000 0.72575  0.91527  0.59810  Biso   1.000  O
