data_image0
_cell_length_a       10.1871
_cell_length_b       10.3038
_cell_length_c       5.27974
_cell_angle_alpha    89.9269
_cell_angle_beta     79.5908
_cell_angle_gamma    90.6242

_symmetry_space_group_name_H-M    "P 1"
_symmetry_int_tables_number       1

loop_
  _symmetry_equiv_pos_as_xyz
  'x, y, z'

loop_
  _atom_site_label
  _atom_site_occupancy
  _atom_site_fract_x
  _atom_site_fract_y
  _atom_site_fract_z
  _atom_site_thermal_displace_type
  _atom_site_B_iso_or_equiv
  _atom_site_type_symbol
  Hf1      1.0000 0.13517  0.02171  0.29389  Biso   1.000  Hf
  Hf2      1.0000 0.14004  0.23576  0.78093  Biso   1.000  Hf
  Hf3      1.0000 0.35567  0.27651  0.17670  Biso   1.000  Hf
  Hf4      1.0000 0.34894  0.48495  0.70942  Biso   1.000  Hf
  O1       1.0000 0.04183  0.16888  0.14991  Biso   1.000  O
  O2       1.0000 0.03511  0.08535  0.64982  Biso   1.000  O
  O3       1.0000 0.47238  0.38787  0.39253  Biso   1.000  O
  O4       1.0000 0.48842  0.36662  0.87874  Biso   1.000  O
  O5       1.0000 0.28187  0.12524  0.45990  Biso   1.000  O
  O6       1.0000 0.28676  0.12160  0.94499  Biso   1.000  O
  O7       1.0000 0.21231  0.38896  0.01739  Biso   1.000  O
  O8       1.0000 0.21128  0.37988  0.49583  Biso   1.000  O
  Hf5      1.0000 0.13363  0.52690  0.29216  Biso   1.000  Hf
  Hf6      1.0000 0.13158  0.73081  0.79783  Biso   1.000  Hf
  Hf7      1.0000 0.35932  0.76867  0.20980  Biso   1.000  Hf
  Hf8      1.0000 0.36127  0.96445  0.70660  Biso   1.000  Hf
  O9       1.0000 0.02585  0.66968  0.15671  Biso   1.000  O
  O10      1.0000 0.02892  0.58974  0.65645  Biso   1.000  O
  O11      1.0000 0.46787  0.90935  0.34893  Biso   1.000  O
  O12      1.0000 0.46419  0.82798  0.85302  Biso   1.000  O
  O13      1.0000 0.27265  0.62954  0.48538  Biso   1.000  O
  O14      1.0000 0.26800  0.62714  0.98626  Biso   1.000  O
  O15      1.0000 0.22280  0.87966  0.02373  Biso   1.000  O
  O16      1.0000 0.22023  0.86855  0.51879  Biso   1.000  O
  Hf9      1.0000 0.63936  0.02147  0.29289  Biso   1.000  Hf
  Hf10     1.0000 0.64717  0.23177  0.80814  Biso   1.000  Hf
  Hf11     1.0000 0.86566  0.27222  0.21551  Biso   1.000  Hf
  Hf12     1.0000 0.86051  0.47894  0.71594  Biso   1.000  Hf
  O17      1.0000 0.53160  0.16160  0.15380  Biso   1.000  O
  O18      1.0000 0.54137  0.06759  0.67774  Biso   1.000  O
  O19      1.0000 0.96264  0.41993  0.34894  Biso   1.000  O
  O20      1.0000 0.96575  0.33686  0.84704  Biso   1.000  O
  O21      1.0000 0.77745  0.12950  0.48414  Biso   1.000  O
  O22      1.0000 0.78113  0.11900  0.98960  Biso   1.000  O
  O23      1.0000 0.72922  0.37695  0.03630  Biso   1.000  O
  O24      1.0000 0.72704  0.37320  0.53050  Biso   1.000  O
  Hf13     1.0000 0.63743  0.51944  0.30214  Biso   1.000  Hf
  Hf14     1.0000 0.63555  0.72391  0.79425  Biso   1.000  Hf
  Hf15     1.0000 0.85607  0.77342  0.21130  Biso   1.000  Hf
  Hf16     1.0000 0.85879  0.97984  0.71069  Biso   1.000  Hf
  O25      1.0000 0.52541  0.65122  0.14782  Biso   1.000  O
  O26      1.0000 0.52604  0.59188  0.63928  Biso   1.000  O
  O27      1.0000 0.96410  0.91741  0.34673  Biso   1.000  O
  O28      1.0000 0.96228  0.83815  0.84971  Biso   1.000  O
  O29      1.0000 0.77167  0.62777  0.48251  Biso   1.000  O
  O30      1.0000 0.77115  0.62130  0.98461  Biso   1.000  O
  O31      1.0000 0.71947  0.87794  0.02433  Biso   1.000  O
  O32      1.0000 0.72308  0.87022  0.52386  Biso   1.000  O
  Re1      1.0000 0.41529  0.23267  0.64647  Biso   1.000  Re
