data_image0
_cell_length_a       9.99812
_cell_length_b       10.1685
_cell_length_c       9.9981
_cell_angle_alpha    90
_cell_angle_beta     90
_cell_angle_gamma    90

_symmetry_space_group_name_H-M    "P 1"
_symmetry_int_tables_number       1

loop_
  _symmetry_equiv_pos_as_xyz
  'x, y, z'

loop_
  _atom_site_label
  _atom_site_occupancy
  _atom_site_fract_x
  _atom_site_fract_y
  _atom_site_fract_z
  _atom_site_thermal_displace_type
  _atom_site_B_iso_or_equiv
  _atom_site_type_symbol
  Re1      1.0000 0.12491  0.00005  0.12491  Biso   1.000  Re
  Hf1      1.0000 0.12528  0.24920  0.37342  Biso   1.000  Hf
  Hf2      1.0000 0.37342  0.24920  0.12528  Biso   1.000  Hf
  Hf3      1.0000 0.37389  0.99916  0.37389  Biso   1.000  Hf
  O1       1.0000 0.99911  0.14100  0.99911  Biso   1.000  O
  O2       1.0000 0.00445  0.10402  0.24537  Biso   1.000  O
  O3       1.0000 0.99836  0.35404  0.25146  Biso   1.000  O
  O4       1.0000 0.00095  0.39489  0.00095  Biso   1.000  O
  O5       1.0000 0.25070  0.14100  0.25070  Biso   1.000  O
  O6       1.0000 0.24537  0.10402  0.00445  Biso   1.000  O
  O7       1.0000 0.25146  0.35404  0.99836  Biso   1.000  O
  O8       1.0000 0.24886  0.39489  0.24886  Biso   1.000  O
  Hf4      1.0000 0.12491  0.00005  0.62491  Biso   1.000  Hf
  Hf5      1.0000 0.12454  0.24920  0.87640  Biso   1.000  Hf
  Hf6      1.0000 0.37507  0.24996  0.62505  Biso   1.000  Hf
  Hf7      1.0000 0.37388  0.00095  0.87593  Biso   1.000  Hf
  O9       1.0000 0.99675  0.14737  0.49539  Biso   1.000  O
  O10      1.0000 0.00121  0.10299  0.74800  Biso   1.000  O
  O11      1.0000 0.99848  0.35232  0.75170  Biso   1.000  O
  O12      1.0000 0.00054  0.39731  0.50080  Biso   1.000  O
  O13      1.0000 0.25306  0.14737  0.75443  Biso   1.000  O
  O14      1.0000 0.24861  0.10298  0.50182  Biso   1.000  O
  O15      1.0000 0.25134  0.35232  0.49812  Biso   1.000  O
  O16      1.0000 0.24927  0.39730  0.74902  Biso   1.000  O
  Hf8      1.0000 0.12491  0.50005  0.12491  Biso   1.000  Hf
  Hf9      1.0000 0.12454  0.75091  0.37342  Biso   1.000  Hf
  Hf10     1.0000 0.37342  0.75091  0.12454  Biso   1.000  Hf
  Hf11     1.0000 0.37507  0.49967  0.37507  Biso   1.000  Hf
  O17      1.0000 0.99836  0.64607  0.99836  Biso   1.000  O
  O18      1.0000 0.00095  0.60521  0.24886  Biso   1.000  O
  O19      1.0000 0.99911  0.85911  0.25070  Biso   1.000  O
  O20      1.0000 0.00445  0.89608  0.00445  Biso   1.000  O
  O21      1.0000 0.25146  0.64607  0.25146  Biso   1.000  O
  O22      1.0000 0.24886  0.60521  0.00095  Biso   1.000  O
  O23      1.0000 0.25070  0.85911  0.99912  Biso   1.000  O
  O24      1.0000 0.24537  0.89608  0.24537  Biso   1.000  O
  Hf12     1.0000 0.12491  0.50005  0.62491  Biso   1.000  Hf
  Hf13     1.0000 0.12528  0.75091  0.87640  Biso   1.000  Hf
  Hf14     1.0000 0.37507  0.75015  0.62477  Biso   1.000  Hf
  Hf15     1.0000 0.37507  0.50043  0.87474  Biso   1.000  Hf
  O25      1.0000 0.99848  0.64779  0.49812  Biso   1.000  O
  O26      1.0000 0.00054  0.60280  0.74902  Biso   1.000  O
  O27      1.0000 0.99675  0.85274  0.75443  Biso   1.000  O
  O28      1.0000 0.00121  0.89712  0.50182  Biso   1.000  O
  O29      1.0000 0.25134  0.64779  0.75170  Biso   1.000  O
  O30      1.0000 0.24927  0.60280  0.50080  Biso   1.000  O
  O31      1.0000 0.25306  0.85274  0.49539  Biso   1.000  O
  O32      1.0000 0.24861  0.89712  0.74800  Biso   1.000  O
  Hf16     1.0000 0.62491  0.00005  0.12491  Biso   1.000  Hf
  Hf17     1.0000 0.62505  0.24996  0.37507  Biso   1.000  Hf
  Hf18     1.0000 0.87640  0.24920  0.12454  Biso   1.000  Hf
  Hf19     1.0000 0.87593  0.00095  0.37389  Biso   1.000  Hf
  O33      1.0000 0.49539  0.14736  0.99675  Biso   1.000  O
  O34      1.0000 0.50182  0.10298  0.24861  Biso   1.000  O
  O35      1.0000 0.49812  0.35232  0.25134  Biso   1.000  O
  O36      1.0000 0.50080  0.39731  0.00054  Biso   1.000  O
  O37      1.0000 0.75443  0.14736  0.25307  Biso   1.000  O
  O38      1.0000 0.74800  0.10298  0.00121  Biso   1.000  O
  O39      1.0000 0.75170  0.35232  0.99848  Biso   1.000  O
  O40      1.0000 0.74902  0.39731  0.24928  Biso   1.000  O
  Hf20     1.0000 0.62491  0.00006  0.62491  Biso   1.000  Hf
  Hf21     1.0000 0.62477  0.24996  0.87475  Biso   1.000  Hf
  Hf22     1.0000 0.87474  0.24996  0.62477  Biso   1.000  Hf
  Hf23     1.0000 0.87593  0.99916  0.87593  Biso   1.000  Hf
  O41      1.0000 0.49720  0.14693  0.49720  Biso   1.000  O
  O42      1.0000 0.50126  0.10327  0.74856  Biso   1.000  O
  O43      1.0000 0.49866  0.35342  0.75116  Biso   1.000  O
  O44      1.0000 0.50075  0.39680  0.50075  Biso   1.000  O
  O45      1.0000 0.75261  0.14693  0.75261  Biso   1.000  O
  O46      1.0000 0.74856  0.10327  0.50126  Biso   1.000  O
  O47      1.0000 0.75116  0.35342  0.49866  Biso   1.000  O
  O48      1.0000 0.74906  0.39680  0.74906  Biso   1.000  O
  Hf24     1.0000 0.62491  0.50005  0.12491  Biso   1.000  Hf
  Hf25     1.0000 0.62477  0.75015  0.37507  Biso   1.000  Hf
  Hf26     1.0000 0.87640  0.75091  0.12528  Biso   1.000  Hf
  Hf27     1.0000 0.87475  0.50043  0.37507  Biso   1.000  Hf
  O49      1.0000 0.49812  0.64779  0.99848  Biso   1.000  O
  O50      1.0000 0.50080  0.60280  0.24928  Biso   1.000  O
  O51      1.0000 0.49539  0.85274  0.25307  Biso   1.000  O
  O52      1.0000 0.50182  0.89713  0.00121  Biso   1.000  O
  O53      1.0000 0.75170  0.64779  0.25134  Biso   1.000  O
  O54      1.0000 0.74902  0.60280  0.00054  Biso   1.000  O
  O55      1.0000 0.75443  0.85274  0.99675  Biso   1.000  O
  O56      1.0000 0.74800  0.89713  0.24861  Biso   1.000  O
  Hf28     1.0000 0.62491  0.50005  0.62491  Biso   1.000  Hf
  Hf29     1.0000 0.62505  0.75015  0.87475  Biso   1.000  Hf
  Hf30     1.0000 0.87474  0.75015  0.62505  Biso   1.000  Hf
  Hf31     1.0000 0.87475  0.49967  0.87474  Biso   1.000  Hf
  O57      1.0000 0.49866  0.64669  0.49866  Biso   1.000  O
  O58      1.0000 0.50075  0.60331  0.74906  Biso   1.000  O
  O59      1.0000 0.49720  0.85318  0.75261  Biso   1.000  O
  O60      1.0000 0.50126  0.89684  0.50126  Biso   1.000  O
  O61      1.0000 0.75116  0.64669  0.75116  Biso   1.000  O
  O62      1.0000 0.74906  0.60331  0.50075  Biso   1.000  O
  O63      1.0000 0.75261  0.85318  0.49720  Biso   1.000  O
  O64      1.0000 0.74856  0.89684  0.74856  Biso   1.000  O
