data_image0
_cell_length_a       10.0951
_cell_length_b       10.2381
_cell_length_c       5.21982
_cell_angle_alpha    89.9093
_cell_angle_beta     80.0055
_cell_angle_gamma    89.9576

_symmetry_space_group_name_H-M    "P 1"
_symmetry_int_tables_number       1

loop_
  _symmetry_equiv_pos_as_xyz
  'x, y, z'

loop_
  _atom_site_label
  _atom_site_occupancy
  _atom_site_fract_x
  _atom_site_fract_y
  _atom_site_fract_z
  _atom_site_thermal_displace_type
  _atom_site_B_iso_or_equiv
  _atom_site_type_symbol
  Re1      1.0000 0.14114  0.02250  0.29995  Biso   1.000  Re
  Hf1      1.0000 0.13924  0.22745  0.79356  Biso   1.000  Hf
  Hf2      1.0000 0.35951  0.27102  0.21204  Biso   1.000  Hf
  Hf3      1.0000 0.36079  0.47901  0.70882  Biso   1.000  Hf
  O1       1.0000 0.03479  0.16119  0.15031  Biso   1.000  O
  O2       1.0000 0.03835  0.08360  0.63524  Biso   1.000  O
  O3       1.0000 0.46374  0.41970  0.33936  Biso   1.000  O
  O4       1.0000 0.46175  0.32878  0.84006  Biso   1.000  O
  O5       1.0000 0.27988  0.12644  0.48761  Biso   1.000  O
  O6       1.0000 0.27344  0.11718  0.99698  Biso   1.000  O
  O7       1.0000 0.22228  0.37801  0.01993  Biso   1.000  O
  O8       1.0000 0.22308  0.37099  0.51994  Biso   1.000  O
  Hf4      1.0000 0.13905  0.52164  0.29221  Biso   1.000  Hf
  Hf5      1.0000 0.13852  0.72949  0.79110  Biso   1.000  Hf
  Hf6      1.0000 0.35854  0.77510  0.20783  Biso   1.000  Hf
  Hf7      1.0000 0.35966  0.97795  0.70991  Biso   1.000  Hf
  O9       1.0000 0.03458  0.66661  0.15632  Biso   1.000  O
  O10      1.0000 0.03474  0.58193  0.65858  Biso   1.000  O
  O11      1.0000 0.46540  0.91773  0.34463  Biso   1.000  O
  O12      1.0000 0.46357  0.83095  0.84102  Biso   1.000  O
  O13      1.0000 0.27655  0.63095  0.48170  Biso   1.000  O
  O14      1.0000 0.27664  0.62174  0.98146  Biso   1.000  O
  O15      1.0000 0.21726  0.88103  0.01746  Biso   1.000  O
  O16      1.0000 0.21955  0.87396  0.51353  Biso   1.000  O
  Hf8      1.0000 0.63824  0.02179  0.29238  Biso   1.000  Hf
  Hf9      1.0000 0.63832  0.22894  0.79215  Biso   1.000  Hf
  Hf10     1.0000 0.86297  0.26974  0.20756  Biso   1.000  Hf
  Hf11     1.0000 0.86078  0.47832  0.70799  Biso   1.000  Hf
  O17      1.0000 0.53598  0.17016  0.16322  Biso   1.000  O
  O18      1.0000 0.53535  0.08011  0.66411  Biso   1.000  O
  O19      1.0000 0.96552  0.41682  0.34160  Biso   1.000  O
  O20      1.0000 0.96538  0.33016  0.84048  Biso   1.000  O
  O21      1.0000 0.77638  0.12880  0.48040  Biso   1.000  O
  O22      1.0000 0.77700  0.12073  0.97793  Biso   1.000  O
  O23      1.0000 0.72374  0.37904  0.01903  Biso   1.000  O
  O24      1.0000 0.72325  0.37082  0.51871  Biso   1.000  O
  Hf12     1.0000 0.63891  0.52224  0.29182  Biso   1.000  Hf
  Hf13     1.0000 0.63896  0.72842  0.79406  Biso   1.000  Hf
  Hf14     1.0000 0.86327  0.77332  0.20697  Biso   1.000  Hf
  Hf15     1.0000 0.86074  0.97942  0.70517  Biso   1.000  Hf
  O25      1.0000 0.53444  0.66979  0.16134  Biso   1.000  O
  O26      1.0000 0.53607  0.58012  0.66257  Biso   1.000  O
  O27      1.0000 0.97314  0.91964  0.33382  Biso   1.000  O
  O28      1.0000 0.96484  0.83359  0.83864  Biso   1.000  O
  O29      1.0000 0.77691  0.62968  0.48133  Biso   1.000  O
  O30      1.0000 0.77735  0.62192  0.98193  Biso   1.000  O
  O31      1.0000 0.72281  0.87948  0.01884  Biso   1.000  O
  O32      1.0000 0.72756  0.87199  0.51836  Biso   1.000  O
