data_image0
_cell_length_a       4.96977
_cell_length_b       10.3311
_cell_length_c       9.98217
_cell_angle_alpha    89.8195
_cell_angle_beta     89.948
_cell_angle_gamma    90.0318

_symmetry_space_group_name_H-M    "P 1"
_symmetry_int_tables_number       1

loop_
  _symmetry_equiv_pos_as_xyz
  'x, y, z'

loop_
  _atom_site_label
  _atom_site_occupancy
  _atom_site_fract_x
  _atom_site_fract_y
  _atom_site_fract_z
  _atom_site_thermal_displace_type
  _atom_site_B_iso_or_equiv
  _atom_site_type_symbol
  Re1      1.0000 0.27466  0.02137  0.12104  Biso   1.000  Re
  Hf1      1.0000 0.26511  0.23235  0.37553  Biso   1.000  Hf
  Hf2      1.0000 0.73283  0.26597  0.12603  Biso   1.000  Hf
  Hf3      1.0000 0.73176  0.48436  0.37620  Biso   1.000  Hf
  O1       1.0000 0.06837  0.17810  0.19673  Biso   1.000  O
  O2       1.0000 0.06744  0.06785  0.44992  Biso   1.000  O
  O3       1.0000 0.93001  0.43202  0.19471  Biso   1.000  O
  O4       1.0000 0.92773  0.31666  0.44515  Biso   1.000  O
  O5       1.0000 0.53207  0.11662  0.24610  Biso   1.000  O
  O6       1.0000 0.54170  0.13292  0.49771  Biso   1.000  O
  O7       1.0000 0.45822  0.38240  0.50005  Biso   1.000  O
  O8       1.0000 0.45999  0.36803  0.25025  Biso   1.000  O
  Hf4      1.0000 0.26879  0.01613  0.62594  Biso   1.000  Hf
  Hf5      1.0000 0.26928  0.23327  0.87740  Biso   1.000  Hf
  Hf6      1.0000 0.73201  0.26584  0.62621  Biso   1.000  Hf
  Hf7      1.0000 0.73117  0.48358  0.87594  Biso   1.000  Hf
  O9       1.0000 0.06974  0.18245  0.69981  Biso   1.000  O
  O10      1.0000 0.07446  0.06413  0.95652  Biso   1.000  O
  O11      1.0000 0.92634  0.43399  0.69392  Biso   1.000  O
  O12      1.0000 0.92532  0.31358  0.94422  Biso   1.000  O
  O13      1.0000 0.54083  0.11730  0.75001  Biso   1.000  O
  O14      1.0000 0.54597  0.12826  0.99957  Biso   1.000  O
  O15      1.0000 0.45771  0.38068  0.00050  Biso   1.000  O
  O16      1.0000 0.45791  0.36691  0.75040  Biso   1.000  O
  Hf8      1.0000 0.27025  0.51732  0.12682  Biso   1.000  Hf
  Hf9      1.0000 0.26891  0.73623  0.37372  Biso   1.000  Hf
  Hf10     1.0000 0.73417  0.77039  0.12525  Biso   1.000  Hf
  Hf11     1.0000 0.73671  0.98520  0.37209  Biso   1.000  Hf
  O17      1.0000 0.07340  0.68384  0.19277  Biso   1.000  O
  O18      1.0000 0.07327  0.56722  0.44304  Biso   1.000  O
  O19      1.0000 0.94321  0.93436  0.19236  Biso   1.000  O
  O20      1.0000 0.92809  0.81695  0.44356  Biso   1.000  O
  O21      1.0000 0.54401  0.62047  0.24977  Biso   1.000  O
  O22      1.0000 0.54074  0.63330  0.49921  Biso   1.000  O
  O23      1.0000 0.46065  0.88363  0.49782  Biso   1.000  O
  O24      1.0000 0.45743  0.87416  0.24598  Biso   1.000  O
  Hf12     1.0000 0.26748  0.51670  0.62512  Biso   1.000  Hf
  Hf13     1.0000 0.26639  0.73267  0.87613  Biso   1.000  Hf
  Hf14     1.0000 0.73230  0.76690  0.62529  Biso   1.000  Hf
  Hf15     1.0000 0.73053  0.98194  0.87711  Biso   1.000  Hf
  O25      1.0000 0.07218  0.68420  0.69378  Biso   1.000  O
  O26      1.0000 0.07402  0.56384  0.94396  Biso   1.000  O
  O27      1.0000 0.92951  0.93390  0.69651  Biso   1.000  O
  O28      1.0000 0.92005  0.81394  0.94178  Biso   1.000  O
  O29      1.0000 0.54060  0.61742  0.74948  Biso   1.000  O
  O30      1.0000 0.54284  0.63195  0.99989  Biso   1.000  O
  O31      1.0000 0.44651  0.88245  0.99971  Biso   1.000  O
  O32      1.0000 0.45996  0.86732  0.74977  Biso   1.000  O
