data_image0
_cell_length_a       5.03212
_cell_length_b       10.2203
_cell_length_c       10.0507
_cell_angle_alpha    89.3585
_cell_angle_beta     92.9988
_cell_angle_gamma    91.6842

_symmetry_space_group_name_H-M    "P 1"
_symmetry_int_tables_number       1

loop_
  _symmetry_equiv_pos_as_xyz
  'x, y, z'

loop_
  _atom_site_label
  _atom_site_occupancy
  _atom_site_fract_x
  _atom_site_fract_y
  _atom_site_fract_z
  _atom_site_thermal_displace_type
  _atom_site_B_iso_or_equiv
  _atom_site_type_symbol
  Rh1      1.0000 0.24510  0.04021  0.13751  Biso   1.000  Rh
  Hf1      1.0000 0.21978  0.24781  0.38243  Biso   1.000  Hf
  Hf2      1.0000 0.74568  0.24157  0.12968  Biso   1.000  Hf
  Hf3      1.0000 0.71054  0.99683  0.38311  Biso   1.000  Hf
  O1       1.0000 0.03379  0.15580  0.00216  Biso   1.000  O
  O2       1.0000 0.96698  0.09083  0.25215  Biso   1.000  O
  O3       1.0000 0.07669  0.33725  0.21295  Biso   1.000  O
  O4       1.0000 0.07361  0.41536  0.96217  Biso   1.000  O
  O5       1.0000 0.48676  0.15694  0.26099  Biso   1.000  O
  O6       1.0000 0.55148  0.07380  0.03155  Biso   1.000  O
  O7       1.0000 0.56964  0.32470  0.96585  Biso   1.000  O
  O8       1.0000 0.57873  0.40810  0.21765  Biso   1.000  O
  Hf4      1.0000 0.24522  0.99269  0.64683  Biso   1.000  Hf
  Hf5      1.0000 0.22914  0.26001  0.85724  Biso   1.000  Hf
  Hf6      1.0000 0.70488  0.23580  0.62641  Biso   1.000  Hf
  Hf7      1.0000 0.77249  0.99271  0.89337  Biso   1.000  Hf
  O9       1.0000 0.93192  0.16042  0.48681  Biso   1.000  O
  O10      1.0000 0.98662  0.10782  0.74936  Biso   1.000  O
  O11      1.0000 0.97968  0.35791  0.72159  Biso   1.000  O
  O12      1.0000 0.04270  0.41266  0.46396  Biso   1.000  O
  O13      1.0000 0.49018  0.13544  0.76610  Biso   1.000  O
  O14      1.0000 0.43978  0.10283  0.50963  Biso   1.000  O
  O15      1.0000 0.53211  0.35139  0.47721  Biso   1.000  O
  O16      1.0000 0.47785  0.38898  0.72915  Biso   1.000  O
  Hf8      1.0000 0.25875  0.50311  0.12603  Biso   1.000  Hf
  Hf9      1.0000 0.24295  0.74919  0.36532  Biso   1.000  Hf
  Hf10     1.0000 0.78325  0.74253  0.12410  Biso   1.000  Hf
  Hf11     1.0000 0.73142  0.51092  0.37708  Biso   1.000  Hf
  O17      1.0000 0.05098  0.65745  0.01150  Biso   1.000  O
  O18      1.0000 0.00883  0.59602  0.25018  Biso   1.000  O
  O19      1.0000 0.90028  0.83692  0.29468  Biso   1.000  O
  O20      1.0000 0.02653  0.91134  0.04030  Biso   1.000  O
  O21      1.0000 0.49620  0.65307  0.24526  Biso   1.000  O
  O22      1.0000 0.54116  0.58605  0.99855  Biso   1.000  O
  O23      1.0000 0.55968  0.83502  0.98706  Biso   1.000  O
  O24      1.0000 0.40544  0.91261  0.25947  Biso   1.000  O
  Hf12     1.0000 0.22375  0.51163  0.61911  Biso   1.000  Hf
  Hf13     1.0000 0.28742  0.73741  0.87501  Biso   1.000  Hf
  Hf14     1.0000 0.74811  0.75634  0.62898  Biso   1.000  Hf
  Hf15     1.0000 0.74266  0.48839  0.86253  Biso   1.000  Hf
  O25      1.0000 0.98828  0.65785  0.50261  Biso   1.000  O
  O26      1.0000 0.99518  0.60657  0.74787  Biso   1.000  O
  O27      1.0000 0.01249  0.85369  0.77907  Biso   1.000  O
  O28      1.0000 0.93879  0.91418  0.53630  Biso   1.000  O
  O29      1.0000 0.49963  0.63644  0.74712  Biso   1.000  O
  O30      1.0000 0.48850  0.60750  0.49684  Biso   1.000  O
  O31      1.0000 0.45827  0.85295  0.50683  Biso   1.000  O
  O32      1.0000 0.51865  0.88831  0.75144  Biso   1.000  O
