data_image0
_cell_length_a       10.1196
_cell_length_b       10.2426
_cell_length_c       5.25973
_cell_angle_alpha    89.7875
_cell_angle_beta     91.4339
_cell_angle_gamma    89.9493

_symmetry_space_group_name_H-M    "P 1"
_symmetry_int_tables_number       1

loop_
  _symmetry_equiv_pos_as_xyz
  'x, y, z'

loop_
  _atom_site_label
  _atom_site_occupancy
  _atom_site_fract_x
  _atom_site_fract_y
  _atom_site_fract_z
  _atom_site_thermal_displace_type
  _atom_site_B_iso_or_equiv
  _atom_site_type_symbol
  Hf1      1.0000 0.13812  0.01750  0.35220  Biso   1.000  Hf
  Hf2      1.0000 0.13990  0.22633  0.85739  Biso   1.000  Hf
  Hf3      1.0000 0.35091  0.26749  0.36993  Biso   1.000  Hf
  Hf4      1.0000 0.36163  0.48117  0.85865  Biso   1.000  Hf
  Hf5      1.0000 0.64408  0.01785  0.14838  Biso   1.000  Hf
  Hf6      1.0000 0.65361  0.22802  0.63302  Biso   1.000  Hf
  Hf7      1.0000 0.86590  0.27192  0.14995  Biso   1.000  Hf
  Hf8      1.0000 0.86793  0.48094  0.65654  Biso   1.000  Hf
  O1       1.0000 0.03268  0.16206  0.16983  Biso   1.000  O
  O2       1.0000 0.03496  0.08384  0.66888  Biso   1.000  O
  O3       1.0000 0.45582  0.43861  0.21207  Biso   1.000  O
  O4       1.0000 0.47923  0.34126  0.65870  Biso   1.000  O
  O5       1.0000 0.27556  0.12330  0.60658  Biso   1.000  O
  O6       1.0000 0.27053  0.11788  0.10828  Biso   1.000  O
  O7       1.0000 0.22496  0.37382  0.61298  Biso   1.000  O
  O8       1.0000 0.22046  0.37440  0.10948  Biso   1.000  O
  O9       1.0000 0.53035  0.15382  0.35224  Biso   1.000  O
  O10      1.0000 0.53193  0.08352  0.83243  Biso   1.000  O
  O11      1.0000 0.97091  0.41377  0.33817  Biso   1.000  O
  O12      1.0000 0.97263  0.33467  0.83584  Biso   1.000  O
  O13      1.0000 0.78193  0.12224  0.89313  Biso   1.000  O
  O14      1.0000 0.78196  0.12312  0.39286  Biso   1.000  O
  O15      1.0000 0.73680  0.38044  0.90181  Biso   1.000  O
  O16      1.0000 0.73207  0.37528  0.40605  Biso   1.000  O
  Hf9      1.0000 0.14122  0.52060  0.34911  Biso   1.000  Hf
  Hf10     1.0000 0.14079  0.72912  0.84865  Biso   1.000  Hf
  Hf11     1.0000 0.36504  0.77046  0.35206  Biso   1.000  Hf
  Hf12     1.0000 0.36185  0.97635  0.85617  Biso   1.000  Hf
  Hf13     1.0000 0.64106  0.52139  0.15640  Biso   1.000  Hf
  Hf14     1.0000 0.64057  0.72871  0.65649  Biso   1.000  Hf
  Hf15     1.0000 0.86410  0.76840  0.15862  Biso   1.000  Hf
  Hf16     1.0000 0.86567  0.97646  0.65687  Biso   1.000  Hf
  O17      1.0000 0.03504  0.66280  0.16782  Biso   1.000  O
  O18      1.0000 0.03693  0.58605  0.66849  Biso   1.000  O
  O19      1.0000 0.47154  0.91331  0.17077  Biso   1.000  O
  O20      1.0000 0.47019  0.83476  0.67302  Biso   1.000  O
  O21      1.0000 0.27838  0.62415  0.59571  Biso   1.000  O
  O22      1.0000 0.27596  0.62579  0.09352  Biso   1.000  O
  O23      1.0000 0.22679  0.87287  0.60129  Biso   1.000  O
  O24      1.0000 0.22614  0.87280  0.10237  Biso   1.000  O
  O25      1.0000 0.53755  0.66906  0.33458  Biso   1.000  O
  O26      1.0000 0.53380  0.58407  0.83796  Biso   1.000  O
  O27      1.0000 0.96964  0.91123  0.33834  Biso   1.000  O
  O28      1.0000 0.96939  0.83439  0.84019  Biso   1.000  O
  O29      1.0000 0.77806  0.62622  0.90687  Biso   1.000  O
  O30      1.0000 0.77846  0.62464  0.40743  Biso   1.000  O
  O31      1.0000 0.72757  0.87453  0.91109  Biso   1.000  O
  O32      1.0000 0.72799  0.87398  0.41135  Biso   1.000  O
  Rh1      1.0000 0.52026  0.27491  0.02998  Biso   1.000  Rh
