data_image0
_cell_length_a       10.0174
_cell_length_b       5.09454
_cell_length_c       10.4436
_cell_angle_alpha    90.0346
_cell_angle_beta     90.5386
_cell_angle_gamma    89.3716

_symmetry_space_group_name_H-M    "P 1"
_symmetry_int_tables_number       1

loop_
  _symmetry_equiv_pos_as_xyz
  'x, y, z'

loop_
  _atom_site_label
  _atom_site_occupancy
  _atom_site_fract_x
  _atom_site_fract_y
  _atom_site_fract_z
  _atom_site_thermal_displace_type
  _atom_site_B_iso_or_equiv
  _atom_site_type_symbol
  Rh1      1.0000 0.12374  0.02434  0.19018  Biso   1.000  Rh
  Hf1      1.0000 0.13795  0.45960  0.41973  Biso   1.000  Hf
  Hf2      1.0000 0.35635  0.55039  0.16607  Biso   1.000  Hf
  Hf3      1.0000 0.35947  0.96144  0.41906  Biso   1.000  Hf
  Hf4      1.0000 0.63876  0.04080  0.07731  Biso   1.000  Hf
  Hf5      1.0000 0.63459  0.45564  0.32729  Biso   1.000  Hf
  Hf6      1.0000 0.86518  0.52866  0.08081  Biso   1.000  Hf
  Hf7      1.0000 0.85435  0.95331  0.33199  Biso   1.000  Hf
  O1       1.0000 0.04489  0.31401  0.09026  Biso   1.000  O
  O2       1.0000 0.02841  0.16939  0.33541  Biso   1.000  O
  O3       1.0000 0.46775  0.83595  0.08388  Biso   1.000  O
  O4       1.0000 0.46058  0.66137  0.33559  Biso   1.000  O
  O5       1.0000 0.27148  0.24290  0.28505  Biso   1.000  O
  O6       1.0000 0.29993  0.30145  0.02499  Biso   1.000  O
  O7       1.0000 0.21564  0.74861  0.29403  Biso   1.000  O
  O8       1.0000 0.21826  0.78789  0.04828  Biso   1.000  O
  O9       1.0000 0.53464  0.33855  0.16309  Biso   1.000  O
  O10      1.0000 0.53272  0.16192  0.41279  Biso   1.000  O
  O11      1.0000 0.96651  0.82259  0.16906  Biso   1.000  O
  O12      1.0000 0.96469  0.66996  0.41860  Biso   1.000  O
  O13      1.0000 0.77454  0.24490  0.45613  Biso   1.000  O
  O14      1.0000 0.77672  0.24534  0.20578  Biso   1.000  O
  O15      1.0000 0.72037  0.74428  0.45630  Biso   1.000  O
  O16      1.0000 0.72590  0.74598  0.20608  Biso   1.000  O
  Hf8      1.0000 0.13845  0.04147  0.67029  Biso   1.000  Hf
  Hf9      1.0000 0.14456  0.45915  0.92173  Biso   1.000  Hf
  Hf10     1.0000 0.36161  0.54514  0.67109  Biso   1.000  Hf
  Hf11     1.0000 0.36041  0.96610  0.92290  Biso   1.000  Hf
  Hf12     1.0000 0.63721  0.04137  0.58024  Biso   1.000  Hf
  Hf13     1.0000 0.63952  0.45935  0.82954  Biso   1.000  Hf
  Hf14     1.0000 0.85974  0.53957  0.58060  Biso   1.000  Hf
  Hf15     1.0000 0.86494  0.95437  0.83159  Biso   1.000  Hf
  O17      1.0000 0.03155  0.32466  0.58003  Biso   1.000  O
  O18      1.0000 0.03513  0.17149  0.83436  Biso   1.000  O
  O19      1.0000 0.46442  0.83872  0.58409  Biso   1.000  O
  O20      1.0000 0.46794  0.67109  0.83286  Biso   1.000  O
  O21      1.0000 0.27626  0.24501  0.78710  Biso   1.000  O
  O22      1.0000 0.27615  0.25576  0.54004  Biso   1.000  O
  O23      1.0000 0.22465  0.74698  0.79629  Biso   1.000  O
  O24      1.0000 0.22237  0.75360  0.54351  Biso   1.000  O
  O25      1.0000 0.53497  0.33867  0.66318  Biso   1.000  O
  O26      1.0000 0.53906  0.16123  0.91158  Biso   1.000  O
  O27      1.0000 0.96868  0.82243  0.67031  Biso   1.000  O
  O28      1.0000 0.96911  0.66419  0.92359  Biso   1.000  O
  O29      1.0000 0.78075  0.24361  0.95710  Biso   1.000  O
  O30      1.0000 0.77782  0.25082  0.70645  Biso   1.000  O
  O31      1.0000 0.72655  0.74237  0.95714  Biso   1.000  O
  O32      1.0000 0.72472  0.75356  0.70661  Biso   1.000  O
