data_image0
_cell_length_a       10.1474
_cell_length_b       10.2851
_cell_length_c       10.5012
_cell_angle_alpha    90.1101
_cell_angle_beta     80.0608
_cell_angle_gamma    90.1305

_symmetry_space_group_name_H-M    "P 1"
_symmetry_int_tables_number       1

loop_
  _symmetry_equiv_pos_as_xyz
  'x, y, z'

loop_
  _atom_site_label
  _atom_site_occupancy
  _atom_site_fract_x
  _atom_site_fract_y
  _atom_site_fract_z
  _atom_site_thermal_displace_type
  _atom_site_B_iso_or_equiv
  _atom_site_type_symbol
  Hf1      1.0000 0.13640  0.02206  0.14620  Biso   1.000  Hf
  Hf2      1.0000 0.13965  0.23095  0.39585  Biso   1.000  Hf
  Hf3      1.0000 0.35633  0.27297  0.09561  Biso   1.000  Hf
  Hf4      1.0000 0.35576  0.48118  0.35171  Biso   1.000  Hf
  O1       1.0000 0.03487  0.16918  0.07831  Biso   1.000  O
  O2       1.0000 0.03549  0.08308  0.32821  Biso   1.000  O
  O3       1.0000 0.46456  0.41447  0.17320  Biso   1.000  O
  O4       1.0000 0.48491  0.35946  0.43783  Biso   1.000  O
  O5       1.0000 0.27859  0.12719  0.23773  Biso   1.000  O
  O6       1.0000 0.27247  0.11448  0.49279  Biso   1.000  O
  O7       1.0000 0.22093  0.38179  0.00474  Biso   1.000  O
  O8       1.0000 0.21104  0.37591  0.25330  Biso   1.000  O
  Hf5      1.0000 0.13712  0.02024  0.64707  Biso   1.000  Hf
  Hf6      1.0000 0.13636  0.22885  0.89379  Biso   1.000  Hf
  Hf7      1.0000 0.36130  0.27402  0.60486  Biso   1.000  Hf
  Hf8      1.0000 0.35966  0.48004  0.85385  Biso   1.000  Hf
  O9       1.0000 0.03614  0.16853  0.57963  Biso   1.000  O
  O10      1.0000 0.03299  0.08211  0.82880  Biso   1.000  O
  O11      1.0000 0.46620  0.41474  0.67773  Biso   1.000  O
  O12      1.0000 0.46628  0.33634  0.92222  Biso   1.000  O
  O13      1.0000 0.27531  0.12959  0.73998  Biso   1.000  O
  O14      1.0000 0.27355  0.12222  0.98794  Biso   1.000  O
  O15      1.0000 0.22378  0.37952  0.51092  Biso   1.000  O
  O16      1.0000 0.22307  0.37159  0.75820  Biso   1.000  O
  Hf9      1.0000 0.13718  0.52307  0.14431  Biso   1.000  Hf
  Hf10     1.0000 0.13665  0.72870  0.39708  Biso   1.000  Hf
  Hf11     1.0000 0.36015  0.77219  0.10408  Biso   1.000  Hf
  Hf12     1.0000 0.36176  0.96955  0.35801  Biso   1.000  Hf
  O17      1.0000 0.03315  0.67070  0.07890  Biso   1.000  O
  O18      1.0000 0.03343  0.58502  0.32746  Biso   1.000  O
  O19      1.0000 0.46494  0.91612  0.17408  Biso   1.000  O
  O20      1.0000 0.46248  0.82511  0.42343  Biso   1.000  O
  O21      1.0000 0.27525  0.62975  0.24059  Biso   1.000  O
  O22      1.0000 0.27235  0.62087  0.49197  Biso   1.000  O
  O23      1.0000 0.22307  0.88015  0.01063  Biso   1.000  O
  O24      1.0000 0.22239  0.87034  0.26073  Biso   1.000  O
  Hf13     1.0000 0.13715  0.52270  0.64660  Biso   1.000  Hf
  Hf14     1.0000 0.13667  0.72982  0.89703  Biso   1.000  Hf
  Hf15     1.0000 0.36079  0.76904  0.60588  Biso   1.000  Hf
  Hf16     1.0000 0.36036  0.97909  0.85365  Biso   1.000  Hf
  O25      1.0000 0.03163  0.66715  0.57919  Biso   1.000  O
  O26      1.0000 0.03381  0.58323  0.82983  Biso   1.000  O
  O27      1.0000 0.46430  0.91640  0.67134  Biso   1.000  O
  O28      1.0000 0.46479  0.83503  0.92264  Biso   1.000  O
  O29      1.0000 0.27503  0.62854  0.74130  Biso   1.000  O
  O30      1.0000 0.27502  0.62329  0.99051  Biso   1.000  O
  O31      1.0000 0.22264  0.87548  0.51205  Biso   1.000  O
  O32      1.0000 0.22270  0.87124  0.76092  Biso   1.000  O
  Hf17     1.0000 0.63864  0.02094  0.14696  Biso   1.000  Hf
  Hf18     1.0000 0.64888  0.23071  0.40108  Biso   1.000  Hf
  Hf19     1.0000 0.86073  0.27269  0.10458  Biso   1.000  Hf
  Hf20     1.0000 0.86274  0.47906  0.35441  Biso   1.000  Hf
  O33      1.0000 0.53073  0.16154  0.07377  Biso   1.000  O
  O34      1.0000 0.54898  0.06150  0.34083  Biso   1.000  O
  O35      1.0000 0.96300  0.42083  0.16900  Biso   1.000  O
  O36      1.0000 0.96589  0.33362  0.42223  Biso   1.000  O
  O37      1.0000 0.77790  0.13012  0.24014  Biso   1.000  O
  O38      1.0000 0.78034  0.11967  0.49290  Biso   1.000  O
  O39      1.0000 0.72239  0.37886  0.01153  Biso   1.000  O
  O40      1.0000 0.72586  0.37250  0.26141  Biso   1.000  O
  Hf21     1.0000 0.63743  0.02184  0.64548  Biso   1.000  Hf
  Hf22     1.0000 0.63830  0.22788  0.89659  Biso   1.000  Hf
  Hf23     1.0000 0.86360  0.27141  0.60696  Biso   1.000  Hf
  Hf24     1.0000 0.85980  0.47908  0.85565  Biso   1.000  Hf
  O41      1.0000 0.53450  0.16785  0.57797  Biso   1.000  O
  O42      1.0000 0.53276  0.08482  0.82605  Biso   1.000  O
  O43      1.0000 0.96476  0.41850  0.67295  Biso   1.000  O
  O44      1.0000 0.96309  0.33218  0.92031  Biso   1.000  O
  O45      1.0000 0.77510  0.12890  0.74148  Biso   1.000  O
  O46      1.0000 0.77534  0.12171  0.99106  Biso   1.000  O
  O47      1.0000 0.72850  0.37810  0.51335  Biso   1.000  O
  O48      1.0000 0.72382  0.37150  0.76192  Biso   1.000  O
  Hf25     1.0000 0.63810  0.52238  0.14693  Biso   1.000  Hf
  Hf26     1.0000 0.63858  0.72629  0.39585  Biso   1.000  Hf
  Hf27     1.0000 0.85963  0.77172  0.10441  Biso   1.000  Hf
  Hf28     1.0000 0.86081  0.97825  0.35426  Biso   1.000  Hf
  O49      1.0000 0.53241  0.66563  0.07706  Biso   1.000  O
  O50      1.0000 0.53133  0.58681  0.32423  Biso   1.000  O
  O51      1.0000 0.96440  0.91876  0.17073  Biso   1.000  O
  O52      1.0000 0.96397  0.83344  0.42212  Biso   1.000  O
  O53      1.0000 0.77549  0.62837  0.24043  Biso   1.000  O
  O54      1.0000 0.77511  0.62043  0.49032  Biso   1.000  O
  O55      1.0000 0.72199  0.87972  0.01106  Biso   1.000  O
  O56      1.0000 0.72514  0.86909  0.25959  Biso   1.000  O
  Hf29     1.0000 0.63864  0.52083  0.64733  Biso   1.000  Hf
  Hf30     1.0000 0.63706  0.72880  0.89638  Biso   1.000  Hf
  Hf31     1.0000 0.85899  0.77194  0.60452  Biso   1.000  Hf
  Hf32     1.0000 0.85904  0.97868  0.85471  Biso   1.000  Hf
  O57      1.0000 0.53379  0.66402  0.57864  Biso   1.000  O
  O58      1.0000 0.53308  0.58515  0.82805  Biso   1.000  O
  O59      1.0000 0.96295  0.91757  0.67170  Biso   1.000  O
  O60      1.0000 0.96311  0.83330  0.92128  Biso   1.000  O
  O61      1.0000 0.77512  0.62914  0.74088  Biso   1.000  O
  O62      1.0000 0.77461  0.62205  0.99090  Biso   1.000  O
  O63      1.0000 0.72209  0.87827  0.50995  Biso   1.000  O
  O64      1.0000 0.72170  0.87162  0.76039  Biso   1.000  O
  Rh1      1.0000 0.42062  0.22880  0.32197  Biso   1.000  Rh
