data_image0
_cell_length_a       9.99906
_cell_length_b       10.4093
_cell_length_c       10.0344
_cell_angle_alpha    89.6794
_cell_angle_beta     90.0707
_cell_angle_gamma    90.0557

_symmetry_space_group_name_H-M    "P 1"
_symmetry_int_tables_number       1

loop_
  _symmetry_equiv_pos_as_xyz
  'x, y, z'

loop_
  _atom_site_label
  _atom_site_occupancy
  _atom_site_fract_x
  _atom_site_fract_y
  _atom_site_fract_z
  _atom_site_thermal_displace_type
  _atom_site_B_iso_or_equiv
  _atom_site_type_symbol
  Hf1      1.0000 0.13503  0.01908  0.12134  Biso   1.000  Hf
  Hf2      1.0000 0.13473  0.23045  0.38305  Biso   1.000  Hf
  Hf3      1.0000 0.36830  0.26504  0.12181  Biso   1.000  Hf
  Hf4      1.0000 0.36772  0.48445  0.37625  Biso   1.000  Hf
  O1       1.0000 0.00732  0.16547  0.22382  Biso   1.000  O
  O2       1.0000 0.03662  0.06339  0.45240  Biso   1.000  O
  O3       1.0000 0.46394  0.43371  0.19498  Biso   1.000  O
  O4       1.0000 0.46412  0.31688  0.44600  Biso   1.000  O
  O5       1.0000 0.26638  0.11731  0.25038  Biso   1.000  O
  O6       1.0000 0.27243  0.13167  0.50025  Biso   1.000  O
  O7       1.0000 0.23144  0.38299  0.50165  Biso   1.000  O
  O8       1.0000 0.23295  0.36842  0.25491  Biso   1.000  O
  Hf5      1.0000 0.13497  0.01258  0.62666  Biso   1.000  Hf
  Hf6      1.0000 0.14054  0.22392  0.86686  Biso   1.000  Hf
  Hf7      1.0000 0.36842  0.26658  0.62562  Biso   1.000  Hf
  Hf8      1.0000 0.36978  0.48538  0.87317  Biso   1.000  Hf
  O9       1.0000 0.03734  0.18071  0.69134  Biso   1.000  O
  O10      1.0000 0.03961  0.05972  0.93931  Biso   1.000  O
  O11      1.0000 0.46637  0.43360  0.69430  Biso   1.000  O
  O12      1.0000 0.46667  0.31530  0.94164  Biso   1.000  O
  O13      1.0000 0.27334  0.11351  0.74581  Biso   1.000  O
  O14      1.0000 0.28751  0.12360  0.99153  Biso   1.000  O
  O15      1.0000 0.23766  0.39147  0.99985  Biso   1.000  O
  O16      1.0000 0.23274  0.36563  0.74963  Biso   1.000  O
  Hf9      1.0000 0.13323  0.53220  0.12561  Biso   1.000  Hf
  Hf10     1.0000 0.13513  0.73590  0.37817  Biso   1.000  Hf
  Hf11     1.0000 0.36558  0.76817  0.12694  Biso   1.000  Hf
  Hf12     1.0000 0.36541  0.98398  0.37557  Biso   1.000  Hf
  O17      1.0000 0.03508  0.68885  0.19867  Biso   1.000  O
  O18      1.0000 0.03648  0.56788  0.44546  Biso   1.000  O
  O19      1.0000 0.46259  0.93449  0.19524  Biso   1.000  O
  O20      1.0000 0.46460  0.81593  0.44361  Biso   1.000  O
  O21      1.0000 0.27260  0.62174  0.25121  Biso   1.000  O
  O22      1.0000 0.27130  0.63233  0.50003  Biso   1.000  O
  O23      1.0000 0.23143  0.88207  0.49995  Biso   1.000  O
  O24      1.0000 0.22915  0.86929  0.24988  Biso   1.000  O
  Hf13     1.0000 0.13446  0.51550  0.62591  Biso   1.000  Hf
  Hf14     1.0000 0.13348  0.73564  0.87356  Biso   1.000  Hf
  Hf15     1.0000 0.36912  0.76472  0.62463  Biso   1.000  Hf
  Hf16     1.0000 0.37067  0.97920  0.87424  Biso   1.000  Hf
  O25      1.0000 0.03733  0.68378  0.69291  Biso   1.000  O
  O26      1.0000 0.03586  0.56785  0.94532  Biso   1.000  O
  O27      1.0000 0.46799  0.93146  0.69222  Biso   1.000  O
  O28      1.0000 0.46768  0.81543  0.94735  Biso   1.000  O
  O29      1.0000 0.27027  0.61589  0.74933  Biso   1.000  O
  O30      1.0000 0.27011  0.63790  0.99868  Biso   1.000  O
  O31      1.0000 0.22985  0.88205  0.99947  Biso   1.000  O
  O32      1.0000 0.23424  0.86461  0.74889  Biso   1.000  O
  Hf17     1.0000 0.63098  0.01312  0.12393  Biso   1.000  Hf
  Hf18     1.0000 0.63108  0.23183  0.37838  Biso   1.000  Hf
  Hf19     1.0000 0.84604  0.26408  0.12881  Biso   1.000  Hf
  Hf20     1.0000 0.86716  0.48469  0.37739  Biso   1.000  Hf
  O33      1.0000 0.53361  0.18173  0.19470  Biso   1.000  O
  O34      1.0000 0.53483  0.06551  0.44617  Biso   1.000  O
  O35      1.0000 0.95396  0.44396  0.19518  Biso   1.000  O
  O36      1.0000 0.96719  0.31900  0.44861  Biso   1.000  O
  O37      1.0000 0.75909  0.11443  0.25057  Biso   1.000  O
  O38      1.0000 0.77194  0.13409  0.49851  Biso   1.000  O
  O39      1.0000 0.73052  0.38221  0.50125  Biso   1.000  O
  O40      1.0000 0.72357  0.36838  0.25376  Biso   1.000  O
  Hf21     1.0000 0.63678  0.01553  0.62461  Biso   1.000  Hf
  Hf22     1.0000 0.63420  0.23177  0.87321  Biso   1.000  Hf
  Hf23     1.0000 0.86712  0.26692  0.62662  Biso   1.000  Hf
  Hf24     1.0000 0.86667  0.48236  0.87701  Biso   1.000  Hf
  O41      1.0000 0.53863  0.18349  0.69251  Biso   1.000  O
  O42      1.0000 0.54198  0.06268  0.93966  Biso   1.000  O
  O43      1.0000 0.96520  0.43401  0.69618  Biso   1.000  O
  O44      1.0000 0.96121  0.31092  0.93621  Biso   1.000  O
  O45      1.0000 0.77276  0.11623  0.74894  Biso   1.000  O
  O46      1.0000 0.77053  0.13032  0.99990  Biso   1.000  O
  O47      1.0000 0.72663  0.38163  0.00130  Biso   1.000  O
  O48      1.0000 0.73094  0.36742  0.75060  Biso   1.000  O
  Hf25     1.0000 0.63260  0.51825  0.12809  Biso   1.000  Hf
  Hf26     1.0000 0.63493  0.73471  0.37592  Biso   1.000  Hf
  Hf27     1.0000 0.86430  0.76648  0.12612  Biso   1.000  Hf
  Hf28     1.0000 0.86985  0.98627  0.37152  Biso   1.000  Hf
  O49      1.0000 0.53565  0.68459  0.19543  Biso   1.000  O
  O50      1.0000 0.53689  0.56656  0.44564  Biso   1.000  O
  O51      1.0000 0.96412  0.93192  0.19101  Biso   1.000  O
  O52      1.0000 0.96521  0.81787  0.44464  Biso   1.000  O
  O53      1.0000 0.76844  0.61909  0.25186  Biso   1.000  O
  O54      1.0000 0.77038  0.63377  0.50065  Biso   1.000  O
  O55      1.0000 0.73281  0.88486  0.49766  Biso   1.000  O
  O56      1.0000 0.72957  0.86728  0.24859  Biso   1.000  O
  Hf29     1.0000 0.63646  0.51605  0.62587  Biso   1.000  Hf
  Hf30     1.0000 0.63599  0.73248  0.87592  Biso   1.000  Hf
  Hf31     1.0000 0.86761  0.76647  0.62487  Biso   1.000  Hf
  Hf32     1.0000 0.86670  0.98116  0.87533  Biso   1.000  Hf
  O57      1.0000 0.53681  0.68200  0.69652  Biso   1.000  O
  O58      1.0000 0.53635  0.56660  0.94626  Biso   1.000  O
  O59      1.0000 0.96685  0.93057  0.69784  Biso   1.000  O
  O60      1.0000 0.96330  0.81338  0.94454  Biso   1.000  O
  O61      1.0000 0.77194  0.61660  0.75035  Biso   1.000  O
  O62      1.0000 0.77032  0.63106  0.00057  Biso   1.000  O
  O63      1.0000 0.73045  0.88080  0.99919  Biso   1.000  O
  O64      1.0000 0.73157  0.86612  0.74871  Biso   1.000  O
  Rh1      1.0000 0.09533  0.29325  0.10497  Biso   1.000  Rh
