data_image0
_cell_length_a       10.0089
_cell_length_b       10.2125
_cell_length_c       10.446
_cell_angle_alpha    89.93
_cell_angle_beta     89.8834
_cell_angle_gamma    90.0186

_symmetry_space_group_name_H-M    "P 1"
_symmetry_int_tables_number       1

loop_
  _symmetry_equiv_pos_as_xyz
  'x, y, z'

loop_
  _atom_site_label
  _atom_site_occupancy
  _atom_site_fract_x
  _atom_site_fract_y
  _atom_site_fract_z
  _atom_site_thermal_displace_type
  _atom_site_B_iso_or_equiv
  _atom_site_type_symbol
  Ru1      1.0000 0.14006  0.02099  0.17749  Biso   1.000  Ru
  Hf1      1.0000 0.13984  0.23000  0.42048  Biso   1.000  Hf
  Hf2      1.0000 0.35979  0.26985  0.17241  Biso   1.000  Hf
  Hf3      1.0000 0.36125  0.47977  0.42172  Biso   1.000  Hf
  Hf4      1.0000 0.63842  0.02190  0.07760  Biso   1.000  Hf
  Hf5      1.0000 0.63827  0.22914  0.32838  Biso   1.000  Hf
  Hf6      1.0000 0.86400  0.26881  0.08000  Biso   1.000  Hf
  Hf7      1.0000 0.86087  0.47922  0.32816  Biso   1.000  Hf
  O1       1.0000 0.03248  0.16081  0.08306  Biso   1.000  O
  O2       1.0000 0.03606  0.08812  0.32399  Biso   1.000  O
  O3       1.0000 0.46637  0.41537  0.08508  Biso   1.000  O
  O4       1.0000 0.46503  0.33277  0.33517  Biso   1.000  O
  O5       1.0000 0.27669  0.12112  0.29522  Biso   1.000  O
  O6       1.0000 0.27042  0.11956  0.05351  Biso   1.000  O
  O7       1.0000 0.22359  0.37451  0.29499  Biso   1.000  O
  O8       1.0000 0.22430  0.37411  0.04528  Biso   1.000  O
  O9       1.0000 0.53259  0.16576  0.16653  Biso   1.000  O
  O10      1.0000 0.53318  0.08420  0.41634  Biso   1.000  O
  O11      1.0000 0.96727  0.41566  0.16663  Biso   1.000  O
  O12      1.0000 0.96732  0.33508  0.41609  Biso   1.000  O
  O13      1.0000 0.77792  0.12343  0.45331  Biso   1.000  O
  O14      1.0000 0.77532  0.12599  0.20459  Biso   1.000  O
  O15      1.0000 0.72326  0.37338  0.45555  Biso   1.000  O
  O16      1.0000 0.72369  0.37600  0.20554  Biso   1.000  O
  Hf8      1.0000 0.13879  0.02109  0.67128  Biso   1.000  Hf
  Hf9      1.0000 0.13669  0.22536  0.92440  Biso   1.000  Hf
  Hf10     1.0000 0.36104  0.27144  0.67252  Biso   1.000  Hf
  Hf11     1.0000 0.36095  0.47840  0.92193  Biso   1.000  Hf
  Hf12     1.0000 0.63862  0.02118  0.57806  Biso   1.000  Hf
  Hf13     1.0000 0.63884  0.22943  0.82884  Biso   1.000  Hf
  Hf14     1.0000 0.86137  0.27111  0.57798  Biso   1.000  Hf
  Hf15     1.0000 0.86137  0.47858  0.82950  Biso   1.000  Hf
  O17      1.0000 0.03151  0.16150  0.57794  Biso   1.000  O
  O18      1.0000 0.03110  0.08632  0.82951  Biso   1.000  O
  O19      1.0000 0.46627  0.41651  0.58463  Biso   1.000  O
  O20      1.0000 0.46693  0.33455  0.83439  Biso   1.000  O
  O21      1.0000 0.27655  0.12357  0.79814  Biso   1.000  O
  O22      1.0000 0.27698  0.12689  0.54552  Biso   1.000  O
  O23      1.0000 0.22335  0.37360  0.79546  Biso   1.000  O
  O24      1.0000 0.22321  0.37605  0.54480  Biso   1.000  O
  O25      1.0000 0.53308  0.16573  0.66658  Biso   1.000  O
  O26      1.0000 0.53056  0.08646  0.91793  Biso   1.000  O
  O27      1.0000 0.96776  0.41335  0.66762  Biso   1.000  O
  O28      1.0000 0.96795  0.33391  0.91788  Biso   1.000  O
  O29      1.0000 0.77534  0.12405  0.95398  Biso   1.000  O
  O30      1.0000 0.77630  0.12627  0.70403  Biso   1.000  O
  O31      1.0000 0.72422  0.37391  0.95560  Biso   1.000  O
  O32      1.0000 0.72354  0.37654  0.70532  Biso   1.000  O
  Hf16     1.0000 0.13906  0.52119  0.17140  Biso   1.000  Hf
  Hf17     1.0000 0.13805  0.72937  0.42107  Biso   1.000  Hf
  Hf18     1.0000 0.35883  0.77415  0.17091  Biso   1.000  Hf
  Hf19     1.0000 0.36086  0.97856  0.42144  Biso   1.000  Hf
  Hf20     1.0000 0.63860  0.52122  0.07912  Biso   1.000  Hf
  Hf21     1.0000 0.63833  0.72898  0.32761  Biso   1.000  Hf
  Hf22     1.0000 0.86393  0.77225  0.07786  Biso   1.000  Hf
  Hf23     1.0000 0.86218  0.98020  0.32641  Biso   1.000  Hf
  O33      1.0000 0.03303  0.66444  0.08296  Biso   1.000  O
  O34      1.0000 0.03269  0.58534  0.33278  Biso   1.000  O
  O35      1.0000 0.46825  0.91473  0.08314  Biso   1.000  O
  O36      1.0000 0.46598  0.83496  0.33338  Biso   1.000  O
  O37      1.0000 0.27634  0.62517  0.29532  Biso   1.000  O
  O38      1.0000 0.27666  0.62677  0.04505  Biso   1.000  O
  O39      1.0000 0.22086  0.87637  0.29275  Biso   1.000  O
  O40      1.0000 0.22138  0.87727  0.04507  Biso   1.000  O
  O41      1.0000 0.53272  0.66683  0.16582  Biso   1.000  O
  O42      1.0000 0.53363  0.58412  0.41588  Biso   1.000  O
  O43      1.0000 0.97535  0.91866  0.16482  Biso   1.000  O
  O44      1.0000 0.96765  0.83713  0.41593  Biso   1.000  O
  O45      1.0000 0.77633  0.62403  0.45488  Biso   1.000  O
  O46      1.0000 0.77658  0.62663  0.20496  Biso   1.000  O
  O47      1.0000 0.72336  0.87408  0.45393  Biso   1.000  O
  O48      1.0000 0.72891  0.87690  0.20444  Biso   1.000  O
  Hf24     1.0000 0.13888  0.52091  0.67221  Biso   1.000  Hf
  Hf25     1.0000 0.13913  0.72985  0.92171  Biso   1.000  Hf
  Hf26     1.0000 0.36139  0.77088  0.67150  Biso   1.000  Hf
  Hf27     1.0000 0.35996  0.97754  0.92296  Biso   1.000  Hf
  Hf28     1.0000 0.63894  0.52124  0.57918  Biso   1.000  Hf
  Hf29     1.0000 0.63884  0.72892  0.82931  Biso   1.000  Hf
  Hf30     1.0000 0.86073  0.77135  0.57787  Biso   1.000  Hf
  Hf31     1.0000 0.86073  0.97906  0.82769  Biso   1.000  Hf
  O49      1.0000 0.03217  0.66448  0.58233  Biso   1.000  O
  O50      1.0000 0.03284  0.58505  0.83355  Biso   1.000  O
  O51      1.0000 0.46692  0.91574  0.58440  Biso   1.000  O
  O52      1.0000 0.46617  0.83388  0.83477  Biso   1.000  O
  O53      1.0000 0.27672  0.62371  0.79532  Biso   1.000  O
  O54      1.0000 0.27640  0.62642  0.54523  Biso   1.000  O
  O55      1.0000 0.22339  0.87380  0.79433  Biso   1.000  O
  O56      1.0000 0.22364  0.87586  0.54440  Biso   1.000  O
  O57      1.0000 0.53372  0.66623  0.66619  Biso   1.000  O
  O58      1.0000 0.53388  0.58338  0.91599  Biso   1.000  O
  O59      1.0000 0.96750  0.91424  0.66621  Biso   1.000  O
  O60      1.0000 0.96710  0.83524  0.91604  Biso   1.000  O
  O61      1.0000 0.77748  0.62498  0.95597  Biso   1.000  O
  O62      1.0000 0.77690  0.62607  0.70556  Biso   1.000  O
  O63      1.0000 0.72337  0.87420  0.95477  Biso   1.000  O
  O64      1.0000 0.72329  0.87627  0.70462  Biso   1.000  O
