data_image0
_cell_length_a       10.1168
_cell_length_b       5.15631
_cell_length_c       10.6582
_cell_angle_alpha    89.8265
_cell_angle_beta     92.2871
_cell_angle_gamma    89.7622

_symmetry_space_group_name_H-M    "P 1"
_symmetry_int_tables_number       1

loop_
  _symmetry_equiv_pos_as_xyz
  'x, y, z'

loop_
  _atom_site_label
  _atom_site_occupancy
  _atom_site_fract_x
  _atom_site_fract_y
  _atom_site_fract_z
  _atom_site_thermal_displace_type
  _atom_site_B_iso_or_equiv
  _atom_site_type_symbol
  Hf1      1.0000 0.13051  0.03555  0.17677  Biso   1.000  Hf
  Hf2      1.0000 0.13624  0.45321  0.42829  Biso   1.000  Hf
  Hf3      1.0000 0.34550  0.53255  0.19656  Biso   1.000  Hf
  Hf4      1.0000 0.36319  0.95686  0.43058  Biso   1.000  Hf
  Hf5      1.0000 0.65268  0.04016  0.07404  Biso   1.000  Hf
  Hf6      1.0000 0.63837  0.46095  0.33112  Biso   1.000  Hf
  Hf7      1.0000 0.86171  0.54026  0.07601  Biso   1.000  Hf
  Hf8      1.0000 0.86013  0.95901  0.32926  Biso   1.000  Hf
  O1       1.0000 0.02972  0.32695  0.08433  Biso   1.000  O
  O2       1.0000 0.02772  0.17595  0.33445  Biso   1.000  O
  O3       1.0000 0.47297  0.86695  0.09650  Biso   1.000  O
  O4       1.0000 0.46801  0.68531  0.33477  Biso   1.000  O
  O5       1.0000 0.26685  0.24632  0.30303  Biso   1.000  O
  O6       1.0000 0.26140  0.21961  0.05276  Biso   1.000  O
  O7       1.0000 0.21771  0.75074  0.30942  Biso   1.000  O
  O8       1.0000 0.21963  0.74115  0.06212  Biso   1.000  O
  O9       1.0000 0.51975  0.30355  0.19633  Biso   1.000  O
  O10      1.0000 0.52808  0.18867  0.42930  Biso   1.000  O
  O11      1.0000 0.96152  0.82763  0.17137  Biso   1.000  O
  O12      1.0000 0.96939  0.67614  0.42142  Biso   1.000  O
  O13      1.0000 0.77661  0.25055  0.45125  Biso   1.000  O
  O14      1.0000 0.77447  0.25609  0.20146  Biso   1.000  O
  O15      1.0000 0.72880  0.75441  0.45618  Biso   1.000  O
  O16      1.0000 0.72261  0.74956  0.20720  Biso   1.000  O
  Hf9      1.0000 0.14569  0.04099  0.67593  Biso   1.000  Hf
  Hf10     1.0000 0.14411  0.45975  0.92919  Biso   1.000  Hf
  Hf11     1.0000 0.36745  0.53905  0.67408  Biso   1.000  Hf
  Hf12     1.0000 0.35314  0.95984  0.93115  Biso   1.000  Hf
  Hf13     1.0000 0.64264  0.04314  0.57461  Biso   1.000  Hf
  Hf14     1.0000 0.66033  0.46746  0.80862  Biso   1.000  Hf
  Hf15     1.0000 0.86958  0.54679  0.57690  Biso   1.000  Hf
  Hf16     1.0000 0.87531  0.96446  0.82842  Biso   1.000  Hf
  O17      1.0000 0.03643  0.32387  0.58378  Biso   1.000  O
  O18      1.0000 0.04430  0.17237  0.83382  Biso   1.000  O
  O19      1.0000 0.47775  0.81133  0.57589  Biso   1.000  O
  O20      1.0000 0.48608  0.69647  0.80885  Biso   1.000  O
  O21      1.0000 0.28321  0.25043  0.79799  Biso   1.000  O
  O22      1.0000 0.27702  0.24560  0.54901  Biso   1.000  O
  O23      1.0000 0.23135  0.74391  0.80374  Biso   1.000  O
  O24      1.0000 0.22921  0.74946  0.55394  Biso   1.000  O
  O25      1.0000 0.53782  0.31469  0.67042  Biso   1.000  O
  O26      1.0000 0.53285  0.13308  0.90869  Biso   1.000  O
  O27      1.0000 0.97811  0.82406  0.67075  Biso   1.000  O
  O28      1.0000 0.97611  0.67306  0.92087  Biso   1.000  O
  O29      1.0000 0.78620  0.25888  0.94307  Biso   1.000  O
  O30      1.0000 0.78811  0.24927  0.69577  Biso   1.000  O
  O31      1.0000 0.74443  0.78041  0.95243  Biso   1.000  O
  O32      1.0000 0.73898  0.75368  0.70217  Biso   1.000  O
  Sb1      1.0000 0.50291  0.50001  0.00260  Biso   1.000  Sb
