data_image0
_cell_length_a       10.0746
_cell_length_b       10.3061
_cell_length_c       10.5041
_cell_angle_alpha    90.2128
_cell_angle_beta     91.1074
_cell_angle_gamma    89.7863

_symmetry_space_group_name_H-M    "P 1"
_symmetry_int_tables_number       1

loop_
  _symmetry_equiv_pos_as_xyz
  'x, y, z'

loop_
  _atom_site_label
  _atom_site_occupancy
  _atom_site_fract_x
  _atom_site_fract_y
  _atom_site_fract_z
  _atom_site_thermal_displace_type
  _atom_site_B_iso_or_equiv
  _atom_site_type_symbol
  Hf1      1.0000 0.13257  0.01712  0.17427  Biso   1.000  Hf
  Hf2      1.0000 0.13456  0.22681  0.42973  Biso   1.000  Hf
  Hf3      1.0000 0.33149  0.26128  0.19043  Biso   1.000  Hf
  Hf4      1.0000 0.36206  0.47752  0.42247  Biso   1.000  Hf
  Hf5      1.0000 0.64420  0.00929  0.07929  Biso   1.000  Hf
  Hf6      1.0000 0.63417  0.22461  0.32586  Biso   1.000  Hf
  Hf7      1.0000 0.85841  0.27176  0.07564  Biso   1.000  Hf
  Hf8      1.0000 0.86111  0.47808  0.32799  Biso   1.000  Hf
  O1       1.0000 0.03152  0.16828  0.08748  Biso   1.000  O
  O2       1.0000 0.02910  0.08404  0.33658  Biso   1.000  O
  O3       1.0000 0.46944  0.45044  0.09110  Biso   1.000  O
  O4       1.0000 0.46186  0.33209  0.32740  Biso   1.000  O
  O5       1.0000 0.26550  0.12036  0.30555  Biso   1.000  O
  O6       1.0000 0.26502  0.11384  0.05182  Biso   1.000  O
  O7       1.0000 0.21245  0.37658  0.30594  Biso   1.000  O
  O8       1.0000 0.22133  0.37767  0.05303  Biso   1.000  O
  O9       1.0000 0.51327  0.11388  0.19577  Biso   1.000  O
  O10      1.0000 0.52802  0.09368  0.43078  Biso   1.000  O
  O11      1.0000 0.96415  0.41664  0.16653  Biso   1.000  O
  O12      1.0000 0.96641  0.33482  0.41823  Biso   1.000  O
  O13      1.0000 0.77411  0.12411  0.45236  Biso   1.000  O
  O14      1.0000 0.77341  0.12659  0.20346  Biso   1.000  O
  O15      1.0000 0.72353  0.37347  0.45258  Biso   1.000  O
  O16      1.0000 0.72220  0.38102  0.20466  Biso   1.000  O
  Hf9      1.0000 0.14180  0.02139  0.67503  Biso   1.000  Hf
  Hf10     1.0000 0.14077  0.22901  0.92609  Biso   1.000  Hf
  Hf11     1.0000 0.36470  0.27182  0.67540  Biso   1.000  Hf
  Hf12     1.0000 0.36257  0.48782  0.92358  Biso   1.000  Hf
  Hf13     1.0000 0.64075  0.02128  0.57896  Biso   1.000  Hf
  Hf14     1.0000 0.65458  0.23241  0.81639  Biso   1.000  Hf
  Hf15     1.0000 0.86279  0.27244  0.57570  Biso   1.000  Hf
  Hf16     1.0000 0.86918  0.48248  0.82619  Biso   1.000  Hf
  O17      1.0000 0.03253  0.16437  0.58646  Biso   1.000  O
  O18      1.0000 0.03862  0.08312  0.83537  Biso   1.000  O
  O19      1.0000 0.47226  0.40930  0.57690  Biso   1.000  O
  O20      1.0000 0.48188  0.35168  0.82174  Biso   1.000  O
  O21      1.0000 0.28053  0.12604  0.79989  Biso   1.000  O
  O22      1.0000 0.27604  0.12440  0.55099  Biso   1.000  O
  O23      1.0000 0.23070  0.37460  0.80058  Biso   1.000  O
  O24      1.0000 0.22694  0.37449  0.55064  Biso   1.000  O
  O25      1.0000 0.53502  0.16143  0.67371  Biso   1.000  O
  O26      1.0000 0.53386  0.07349  0.91509  Biso   1.000  O
  O27      1.0000 0.97178  0.41543  0.66542  Biso   1.000  O
  O28      1.0000 0.97041  0.33241  0.91460  Biso   1.000  O
  O29      1.0000 0.78386  0.12156  0.94822  Biso   1.000  O
  O30      1.0000 0.78382  0.12456  0.69931  Biso   1.000  O
  O31      1.0000 0.73930  0.39102  0.94931  Biso   1.000  O
  O32      1.0000 0.73139  0.37598  0.70066  Biso   1.000  O
  Hf17     1.0000 0.13592  0.52208  0.17265  Biso   1.000  Hf
  Hf18     1.0000 0.13938  0.72810  0.42159  Biso   1.000  Hf
  Hf19     1.0000 0.36253  0.77095  0.17378  Biso   1.000  Hf
  Hf20     1.0000 0.36349  0.97760  0.42607  Biso   1.000  Hf
  Hf21     1.0000 0.64822  0.53491  0.07664  Biso   1.000  Hf
  Hf22     1.0000 0.63982  0.72989  0.33021  Biso   1.000  Hf
  Hf23     1.0000 0.86497  0.77083  0.07857  Biso   1.000  Hf
  Hf24     1.0000 0.86049  0.97952  0.33100  Biso   1.000  Hf
  O33      1.0000 0.03495  0.66631  0.08316  Biso   1.000  O
  O34      1.0000 0.03220  0.58556  0.33390  Biso   1.000  O
  O35      1.0000 0.47137  0.90125  0.07545  Biso   1.000  O
  O36      1.0000 0.46943  0.83777  0.33467  Biso   1.000  O
  O37      1.0000 0.27622  0.62322  0.29427  Biso   1.000  O
  O38      1.0000 0.27540  0.62684  0.04452  Biso   1.000  O
  O39      1.0000 0.22432  0.87262  0.29728  Biso   1.000  O
  O40      1.0000 0.22341  0.87244  0.04894  Biso   1.000  O
  O41      1.0000 0.53944  0.67363  0.16829  Biso   1.000  O
  O42      1.0000 0.53213  0.58494  0.41501  Biso   1.000  O
  O43      1.0000 0.96308  0.91759  0.16669  Biso   1.000  O
  O44      1.0000 0.96718  0.83371  0.41677  Biso   1.000  O
  O45      1.0000 0.77660  0.62353  0.45437  Biso   1.000  O
  O46      1.0000 0.78166  0.63016  0.20532  Biso   1.000  O
  O47      1.0000 0.72579  0.87539  0.45663  Biso   1.000  O
  O48      1.0000 0.72653  0.87370  0.20742  Biso   1.000  O
  Hf25     1.0000 0.14221  0.52028  0.67166  Biso   1.000  Hf
  Hf26     1.0000 0.14086  0.73048  0.92192  Biso   1.000  Hf
  Hf27     1.0000 0.36388  0.77055  0.67101  Biso   1.000  Hf
  Hf28     1.0000 0.36036  0.97327  0.92419  Biso   1.000  Hf
  Hf29     1.0000 0.63986  0.52081  0.57481  Biso   1.000  Hf
  Hf30     1.0000 0.64163  0.73052  0.82441  Biso   1.000  Hf
  Hf31     1.0000 0.86493  0.77105  0.57878  Biso   1.000  Hf
  Hf32     1.0000 0.86685  0.97854  0.82856  Biso   1.000  Hf
  O49      1.0000 0.03647  0.66538  0.58424  Biso   1.000  O
  O50      1.0000 0.03986  0.58400  0.83438  Biso   1.000  O
  O51      1.0000 0.47168  0.91187  0.58311  Biso   1.000  O
  O52      1.0000 0.46943  0.83555  0.82833  Biso   1.000  O
  O53      1.0000 0.27928  0.62606  0.79443  Biso   1.000  O
  O54      1.0000 0.27710  0.62344  0.54428  Biso   1.000  O
  O55      1.0000 0.22540  0.87314  0.79668  Biso   1.000  O
  O56      1.0000 0.22660  0.87545  0.54671  Biso   1.000  O
  O57      1.0000 0.53401  0.66311  0.66403  Biso   1.000  O
  O58      1.0000 0.53575  0.59252  0.91456  Biso   1.000  O
  O59      1.0000 0.97148  0.91470  0.66667  Biso   1.000  O
  O60      1.0000 0.97059  0.83549  0.91800  Biso   1.000  O
  O61      1.0000 0.78169  0.63152  0.95103  Biso   1.000  O
  O62      1.0000 0.77857  0.62598  0.70236  Biso   1.000  O
  O63      1.0000 0.72863  0.87379  0.95481  Biso   1.000  O
  O64      1.0000 0.72897  0.87584  0.70535  Biso   1.000  O
  Sb1      1.0000 0.52229  0.25788  0.03257  Biso   1.000  Sb
