data_image0
_cell_length_a       10.0587
_cell_length_b       5.21442
_cell_length_c       10.0967
_cell_angle_alpha    89.2682
_cell_angle_beta     89.9927
_cell_angle_gamma    89.4088

_symmetry_space_group_name_H-M    "P 1"
_symmetry_int_tables_number       1

loop_
  _symmetry_equiv_pos_as_xyz
  'x, y, z'

loop_
  _atom_site_label
  _atom_site_occupancy
  _atom_site_fract_x
  _atom_site_fract_y
  _atom_site_fract_z
  _atom_site_thermal_displace_type
  _atom_site_B_iso_or_equiv
  _atom_site_type_symbol
  Hf1      1.0000 0.13105  0.04064  0.12100  Biso   1.000  Hf
  Hf2      1.0000 0.13261  0.46256  0.38680  Biso   1.000  Hf
  Hf3      1.0000 0.38097  0.54634  0.11734  Biso   1.000  Hf
  Hf4      1.0000 0.36365  0.97655  0.37039  Biso   1.000  Hf
  O1       1.0000 0.99953  0.30634  0.23001  Biso   1.000  O
  O2       1.0000 0.03564  0.12798  0.45870  Biso   1.000  O
  O3       1.0000 0.46504  0.87729  0.19576  Biso   1.000  O
  O4       1.0000 0.46866  0.64756  0.44640  Biso   1.000  O
  O5       1.0000 0.25796  0.25847  0.24352  Biso   1.000  O
  O6       1.0000 0.27444  0.26271  0.49862  Biso   1.000  O
  O7       1.0000 0.23374  0.76624  0.49769  Biso   1.000  O
  O8       1.0000 0.23479  0.74044  0.24940  Biso   1.000  O
  Hf5      1.0000 0.13652  0.02019  0.62621  Biso   1.000  Hf
  Hf6      1.0000 0.13008  0.47448  0.85038  Biso   1.000  Hf
  Hf7      1.0000 0.37418  0.53482  0.62031  Biso   1.000  Hf
  Hf8      1.0000 0.36880  0.97808  0.87251  Biso   1.000  Hf
  O9       1.0000 0.02918  0.34224  0.69086  Biso   1.000  O
  O10      1.0000 0.02963  0.13906  0.94815  Biso   1.000  O
  O11      1.0000 0.47118  0.86716  0.69591  Biso   1.000  O
  O12      1.0000 0.47361  0.64889  0.94203  Biso   1.000  O
  O13      1.0000 0.26875  0.23135  0.74400  Biso   1.000  O
  O14      1.0000 0.26069  0.30201  0.99421  Biso   1.000  O
  O15      1.0000 0.23716  0.79002  0.99462  Biso   1.000  O
  O16      1.0000 0.24247  0.73173  0.74488  Biso   1.000  O
  Hf9      1.0000 0.63180  0.03025  0.12425  Biso   1.000  Hf
  Hf10     1.0000 0.63252  0.46730  0.37623  Biso   1.000  Hf
  Hf11     1.0000 0.84845  0.51797  0.12878  Biso   1.000  Hf
  Hf12     1.0000 0.87775  0.97405  0.36687  Biso   1.000  Hf
  O17      1.0000 0.53487  0.36431  0.20079  Biso   1.000  O
  O18      1.0000 0.53171  0.14087  0.44798  Biso   1.000  O
  O19      1.0000 0.97204  0.82056  0.19932  Biso   1.000  O
  O20      1.0000 0.96910  0.64305  0.45466  Biso   1.000  O
  O21      1.0000 0.75742  0.21978  0.25012  Biso   1.000  O
  O22      1.0000 0.77033  0.27419  0.49700  Biso   1.000  O
  O23      1.0000 0.73676  0.77699  0.49667  Biso   1.000  O
  O24      1.0000 0.72673  0.73364  0.24991  Biso   1.000  O
  Hf13     1.0000 0.63671  0.02996  0.62119  Biso   1.000  Hf
  Hf14     1.0000 0.63631  0.46441  0.87141  Biso   1.000  Hf
  Hf15     1.0000 0.86407  0.53056  0.62212  Biso   1.000  Hf
  Hf16     1.0000 0.86923  0.95802  0.87761  Biso   1.000  Hf
  O25      1.0000 0.53845  0.36545  0.69577  Biso   1.000  O
  O26      1.0000 0.52926  0.14990  0.94980  Biso   1.000  O
  O27      1.0000 0.98072  0.83320  0.71339  Biso   1.000  O
  O28      1.0000 0.97034  0.62398  0.95963  Biso   1.000  O
  O29      1.0000 0.77205  0.22221  0.74765  Biso   1.000  O
  O30      1.0000 0.76760  0.25715  0.99697  Biso   1.000  O
  O31      1.0000 0.72857  0.76218  0.99749  Biso   1.000  O
  O32      1.0000 0.73546  0.72855  0.74754  Biso   1.000  O
  Sc1      1.0000 0.11670  0.54064  0.11388  Biso   1.000  Sc
