data_image0
_cell_length_a       5.09301
_cell_length_b       10.3594
_cell_length_c       10.6406
_cell_angle_alpha    89.8548
_cell_angle_beta     78.8289
_cell_angle_gamma    90.6838

_symmetry_space_group_name_H-M    "P 1"
_symmetry_int_tables_number       1

loop_
  _symmetry_equiv_pos_as_xyz
  'x, y, z'

loop_
  _atom_site_label
  _atom_site_occupancy
  _atom_site_fract_x
  _atom_site_fract_y
  _atom_site_fract_z
  _atom_site_thermal_displace_type
  _atom_site_B_iso_or_equiv
  _atom_site_type_symbol
  Hf1      1.0000 0.28149  0.01474  0.15088  Biso   1.000  Hf
  Hf2      1.0000 0.31462  0.22848  0.41496  Biso   1.000  Hf
  Hf3      1.0000 0.67862  0.27232  0.08278  Biso   1.000  Hf
  Hf4      1.0000 0.70728  0.48819  0.35725  Biso   1.000  Hf
  O1       1.0000 0.04562  0.15911  0.06662  Biso   1.000  O
  O2       1.0000 0.09842  0.05769  0.34387  Biso   1.000  O
  O3       1.0000 0.90224  0.43017  0.16553  Biso   1.000  O
  O4       1.0000 0.95518  0.35935  0.44635  Biso   1.000  O
  O5       1.0000 0.56209  0.12444  0.24139  Biso   1.000  O
  O6       1.0000 0.59065  0.12053  0.49245  Biso   1.000  O
  O7       1.0000 0.41470  0.38433  0.00526  Biso   1.000  O
  O8       1.0000 0.41978  0.36660  0.25698  Biso   1.000  O
  Hf5      1.0000 0.28128  0.02076  0.64693  Biso   1.000  Hf
  Hf6      1.0000 0.25882  0.22535  0.89232  Biso   1.000  Hf
  Hf7      1.0000 0.73386  0.27840  0.61055  Biso   1.000  Hf
  Hf8      1.0000 0.70958  0.48315  0.85549  Biso   1.000  Hf
  O9       1.0000 0.08286  0.16963  0.58549  Biso   1.000  O
  O10      1.0000 0.05755  0.08320  0.82352  Biso   1.000  O
  O11      1.0000 0.93521  0.41713  0.68431  Biso   1.000  O
  O12      1.0000 0.91473  0.33432  0.91735  Biso   1.000  O
  O13      1.0000 0.54775  0.12863  0.74222  Biso   1.000  O
  O14      1.0000 0.53455  0.11985  0.98765  Biso   1.000  O
  O15      1.0000 0.45419  0.38132  0.51618  Biso   1.000  O
  O16      1.0000 0.44512  0.37277  0.76058  Biso   1.000  O
  Hf9      1.0000 0.26431  0.52533  0.14730  Biso   1.000  Hf
  Hf10     1.0000 0.26958  0.72672  0.39922  Biso   1.000  Hf
  Hf11     1.0000 0.71716  0.77133  0.10500  Biso   1.000  Hf
  Hf12     1.0000 0.72095  0.96734  0.35693  Biso   1.000  Hf
  O17      1.0000 0.06281  0.67044  0.07877  Biso   1.000  O
  O18      1.0000 0.05624  0.58837  0.32603  Biso   1.000  O
  O19      1.0000 0.93039  0.91254  0.17692  Biso   1.000  O
  O20      1.0000 0.92322  0.82542  0.42637  Biso   1.000  O
  O21      1.0000 0.54248  0.62845  0.24400  Biso   1.000  O
  O22      1.0000 0.54034  0.62413  0.49412  Biso   1.000  O
  O23      1.0000 0.44617  0.87782  0.01126  Biso   1.000  O
  O24      1.0000 0.44358  0.86514  0.25916  Biso   1.000  O
  Hf13     1.0000 0.27393  0.52407  0.65059  Biso   1.000  Hf
  Hf14     1.0000 0.26935  0.72991  0.89921  Biso   1.000  Hf
  Hf15     1.0000 0.72010  0.77162  0.60721  Biso   1.000  Hf
  Hf16     1.0000 0.71576  0.97666  0.85380  Biso   1.000  Hf
  O25      1.0000 0.05773  0.66296  0.58057  Biso   1.000  O
  O26      1.0000 0.06035  0.58782  0.83067  Biso   1.000  O
  O27      1.0000 0.93117  0.91449  0.67400  Biso   1.000  O
  O28      1.0000 0.92938  0.83679  0.92453  Biso   1.000  O
  O29      1.0000 0.54790  0.62937  0.74350  Biso   1.000  O
  O30      1.0000 0.54518  0.62406  0.99324  Biso   1.000  O
  O31      1.0000 0.44313  0.87685  0.51278  Biso   1.000  O
  O32      1.0000 0.44277  0.87176  0.76174  Biso   1.000  O
  Sr1      1.0000 0.94243  0.24010  0.27113  Biso   1.000  Sr
