data_image0
_cell_length_a       10.1714
_cell_length_b       5.1499
_cell_length_c       10.5832
_cell_angle_alpha    89.4842
_cell_angle_beta     79.9244
_cell_angle_gamma    90.3681

_symmetry_space_group_name_H-M    "P 1"
_symmetry_int_tables_number       1

loop_
  _symmetry_equiv_pos_as_xyz
  'x, y, z'

loop_
  _atom_site_label
  _atom_site_occupancy
  _atom_site_fract_x
  _atom_site_fract_y
  _atom_site_fract_z
  _atom_site_thermal_displace_type
  _atom_site_B_iso_or_equiv
  _atom_site_type_symbol
  Hf1      1.0000 0.13650  0.04160  0.14360  Biso   1.000  Hf
  Hf2      1.0000 0.13277  0.46539  0.39792  Biso   1.000  Hf
  Hf3      1.0000 0.35784  0.53445  0.09362  Biso   1.000  Hf
  Hf4      1.0000 0.35287  0.94984  0.35600  Biso   1.000  Hf
  O1       1.0000 0.03243  0.33477  0.07596  Biso   1.000  O
  O2       1.0000 0.03345  0.17723  0.32368  Biso   1.000  O
  O3       1.0000 0.47401  0.77425  0.19051  Biso   1.000  O
  O4       1.0000 0.48289  0.71776  0.44225  Biso   1.000  O
  O5       1.0000 0.27851  0.24364  0.23371  Biso   1.000  O
  O6       1.0000 0.27910  0.25255  0.48554  Biso   1.000  O
  O7       1.0000 0.22239  0.76051  0.00572  Biso   1.000  O
  O8       1.0000 0.21393  0.74278  0.25278  Biso   1.000  O
  Hf5      1.0000 0.13529  0.04934  0.64860  Biso   1.000  Hf
  Hf6      1.0000 0.13474  0.45900  0.89441  Biso   1.000  Hf
  Hf7      1.0000 0.36042  0.55301  0.60569  Biso   1.000  Hf
  Hf8      1.0000 0.36037  0.95925  0.85321  Biso   1.000  Hf
  O9       1.0000 0.03234  0.33385  0.57806  Biso   1.000  O
  O10      1.0000 0.03059  0.17052  0.82818  Biso   1.000  O
  O11      1.0000 0.46805  0.82362  0.68131  Biso   1.000  O
  O12      1.0000 0.47137  0.68585  0.92807  Biso   1.000  O
  O13      1.0000 0.27362  0.26002  0.73888  Biso   1.000  O
  O14      1.0000 0.27177  0.24459  0.98510  Biso   1.000  O
  O15      1.0000 0.21825  0.77015  0.51678  Biso   1.000  O
  O16      1.0000 0.22322  0.74632  0.76020  Biso   1.000  O
  Hf9      1.0000 0.63953  0.03574  0.14739  Biso   1.000  Hf
  Hf10     1.0000 0.64249  0.46326  0.40118  Biso   1.000  Hf
  Hf11     1.0000 0.86106  0.54372  0.10592  Biso   1.000  Hf
  Hf12     1.0000 0.86080  0.96315  0.35502  Biso   1.000  Hf
  O17      1.0000 0.52569  0.29173  0.06688  Biso   1.000  O
  O18      1.0000 0.53774  0.15212  0.32860  Biso   1.000  O
  O19      1.0000 0.96434  0.83447  0.17279  Biso   1.000  O
  O20      1.0000 0.96545  0.68256  0.42739  Biso   1.000  O
  O21      1.0000 0.77488  0.25675  0.23891  Biso   1.000  O
  O22      1.0000 0.77810  0.24392  0.49206  Biso   1.000  O
  O23      1.0000 0.72224  0.75253  0.01348  Biso   1.000  O
  O24      1.0000 0.72752  0.74438  0.26250  Biso   1.000  O
  Hf13     1.0000 0.63748  0.04669  0.64648  Biso   1.000  Hf
  Hf14     1.0000 0.63761  0.45160  0.89711  Biso   1.000  Hf
  Hf15     1.0000 0.86025  0.54889  0.60766  Biso   1.000  Hf
  Hf16     1.0000 0.85809  0.95624  0.85659  Biso   1.000  Hf
  O25      1.0000 0.53081  0.32706  0.57586  Biso   1.000  O
  O26      1.0000 0.52979  0.18390  0.82103  Biso   1.000  O
  O27      1.0000 0.96498  0.83220  0.67730  Biso   1.000  O
  O28      1.0000 0.96343  0.67022  0.92364  Biso   1.000  O
  O29      1.0000 0.77439  0.25823  0.74166  Biso   1.000  O
  O30      1.0000 0.77404  0.24093  0.99141  Biso   1.000  O
  O31      1.0000 0.72627  0.75901  0.51425  Biso   1.000  O
  O32      1.0000 0.72295  0.74420  0.76288  Biso   1.000  O
  Tc1      1.0000 0.40466  0.46613  0.32722  Biso   1.000  Tc
