data_image0
_cell_length_a       9.94656
_cell_length_b       10.3493
_cell_length_c       9.9857
_cell_angle_alpha    89.9171
_cell_angle_beta     89.9714
_cell_angle_gamma    90.0241

_symmetry_space_group_name_H-M    "P 1"
_symmetry_int_tables_number       1

loop_
  _symmetry_equiv_pos_as_xyz
  'x, y, z'

loop_
  _atom_site_label
  _atom_site_occupancy
  _atom_site_fract_x
  _atom_site_fract_y
  _atom_site_fract_z
  _atom_site_thermal_displace_type
  _atom_site_B_iso_or_equiv
  _atom_site_type_symbol
  Tc1      1.0000 0.13680  0.02105  0.12176  Biso   1.000  Tc
  Hf1      1.0000 0.13273  0.23215  0.37505  Biso   1.000  Hf
  Hf2      1.0000 0.36626  0.26693  0.12587  Biso   1.000  Hf
  Hf3      1.0000 0.36608  0.48415  0.37624  Biso   1.000  Hf
  O1       1.0000 0.03563  0.17921  0.19662  Biso   1.000  O
  O2       1.0000 0.03490  0.06729  0.44994  Biso   1.000  O
  O3       1.0000 0.46342  0.43483  0.19347  Biso   1.000  O
  O4       1.0000 0.46347  0.31630  0.44384  Biso   1.000  O
  O5       1.0000 0.26679  0.11636  0.24587  Biso   1.000  O
  O6       1.0000 0.27105  0.13254  0.49830  Biso   1.000  O
  O7       1.0000 0.22916  0.38232  0.49992  Biso   1.000  O
  O8       1.0000 0.23006  0.36779  0.25028  Biso   1.000  O
  Hf4      1.0000 0.13450  0.01648  0.62714  Biso   1.000  Hf
  Hf5      1.0000 0.13499  0.23351  0.87814  Biso   1.000  Hf
  Hf6      1.0000 0.36584  0.26678  0.62580  Biso   1.000  Hf
  Hf7      1.0000 0.36584  0.48393  0.87577  Biso   1.000  Hf
  O9       1.0000 0.03458  0.18213  0.70061  Biso   1.000  O
  O10      1.0000 0.03683  0.06538  0.95647  Biso   1.000  O
  O11      1.0000 0.46306  0.43481  0.69355  Biso   1.000  O
  O12      1.0000 0.46194  0.31431  0.94324  Biso   1.000  O
  O13      1.0000 0.27092  0.11812  0.75052  Biso   1.000  O
  O14      1.0000 0.27161  0.12850  0.00117  Biso   1.000  O
  O15      1.0000 0.22904  0.38142  0.00027  Biso   1.000  O
  O16      1.0000 0.22876  0.36732  0.75052  Biso   1.000  O
  Hf8      1.0000 0.13467  0.51636  0.12675  Biso   1.000  Hf
  Hf9      1.0000 0.13373  0.73513  0.37532  Biso   1.000  Hf
  Hf10     1.0000 0.36390  0.76844  0.12662  Biso   1.000  Hf
  Hf11     1.0000 0.36469  0.98366  0.37458  Biso   1.000  Hf
  O17      1.0000 0.03703  0.68287  0.19390  Biso   1.000  O
  O18      1.0000 0.03641  0.56631  0.44353  Biso   1.000  O
  O19      1.0000 0.46432  0.93388  0.19476  Biso   1.000  O
  O20      1.0000 0.46315  0.81597  0.44284  Biso   1.000  O
  O21      1.0000 0.27138  0.61977  0.25008  Biso   1.000  O
  O22      1.0000 0.27046  0.63273  0.49951  Biso   1.000  O
  O23      1.0000 0.22942  0.88260  0.50002  Biso   1.000  O
  O24      1.0000 0.22583  0.87260  0.24840  Biso   1.000  O
  Hf12     1.0000 0.13371  0.51648  0.62554  Biso   1.000  Hf
  Hf13     1.0000 0.13341  0.73310  0.87628  Biso   1.000  Hf
  Hf14     1.0000 0.36620  0.76653  0.62568  Biso   1.000  Hf
  Hf15     1.0000 0.36502  0.98239  0.87729  Biso   1.000  Hf
  O25      1.0000 0.03617  0.68415  0.69385  Biso   1.000  O
  O26      1.0000 0.03643  0.56480  0.94488  Biso   1.000  O
  O27      1.0000 0.46325  0.93452  0.69407  Biso   1.000  O
  O28      1.0000 0.46181  0.81504  0.94432  Biso   1.000  O
  O29      1.0000 0.27044  0.61762  0.74962  Biso   1.000  O
  O30      1.0000 0.27108  0.63195  0.99990  Biso   1.000  O
  O31      1.0000 0.22475  0.88238  0.00210  Biso   1.000  O
  O32      1.0000 0.22980  0.86727  0.75070  Biso   1.000  O
  Hf16     1.0000 0.63390  0.01639  0.12558  Biso   1.000  Hf
  Hf17     1.0000 0.63392  0.23362  0.37626  Biso   1.000  Hf
  Hf18     1.0000 0.86652  0.26505  0.12618  Biso   1.000  Hf
  Hf19     1.0000 0.86594  0.48366  0.37606  Biso   1.000  Hf
  O33      1.0000 0.53530  0.18401  0.19461  Biso   1.000  O
  O34      1.0000 0.53569  0.06581  0.44340  Biso   1.000  O
  O35      1.0000 0.96520  0.43167  0.19513  Biso   1.000  O
  O36      1.0000 0.96395  0.31580  0.44526  Biso   1.000  O
  O37      1.0000 0.76952  0.11787  0.24931  Biso   1.000  O
  O38      1.0000 0.77076  0.13266  0.49918  Biso   1.000  O
  O39      1.0000 0.72936  0.38246  0.49998  Biso   1.000  O
  O40      1.0000 0.72966  0.36771  0.24970  Biso   1.000  O
  Hf20     1.0000 0.63373  0.01616  0.62482  Biso   1.000  Hf
  Hf21     1.0000 0.63357  0.23318  0.87548  Biso   1.000  Hf
  Hf22     1.0000 0.86607  0.26566  0.62645  Biso   1.000  Hf
  Hf23     1.0000 0.86569  0.48331  0.87611  Biso   1.000  Hf
  O41      1.0000 0.53677  0.18483  0.69300  Biso   1.000  O
  O42      1.0000 0.53625  0.06514  0.94384  Biso   1.000  O
  O43      1.0000 0.96348  0.43385  0.69417  Biso   1.000  O
  O44      1.0000 0.96379  0.31477  0.94465  Biso   1.000  O
  O45      1.0000 0.77005  0.11707  0.74970  Biso   1.000  O
  O46      1.0000 0.77051  0.13218  0.99933  Biso   1.000  O
  O47      1.0000 0.72911  0.38160  0.99994  Biso   1.000  O
  O48      1.0000 0.72935  0.36750  0.74970  Biso   1.000  O
  Hf24     1.0000 0.63464  0.51715  0.12608  Biso   1.000  Hf
  Hf25     1.0000 0.63473  0.73459  0.37444  Biso   1.000  Hf
  Hf26     1.0000 0.86927  0.76788  0.12460  Biso   1.000  Hf
  Hf27     1.0000 0.86930  0.98492  0.37328  Biso   1.000  Hf
  O49      1.0000 0.53670  0.68533  0.19281  Biso   1.000  O
  O50      1.0000 0.53694  0.56648  0.44346  Biso   1.000  O
  O51      1.0000 0.97115  0.93413  0.19194  Biso   1.000  O
  O52      1.0000 0.96424  0.81659  0.44464  Biso   1.000  O
  O53      1.0000 0.77156  0.61801  0.24953  Biso   1.000  O
  O54      1.0000 0.77072  0.63294  0.49961  Biso   1.000  O
  O55      1.0000 0.73029  0.88333  0.49799  Biso   1.000  O
  O56      1.0000 0.73335  0.86844  0.24791  Biso   1.000  O
  Hf28     1.0000 0.63418  0.51681  0.62568  Biso   1.000  Hf
  Hf29     1.0000 0.63387  0.73353  0.87613  Biso   1.000  Hf
  Hf30     1.0000 0.86594  0.76704  0.62592  Biso   1.000  Hf
  Hf31     1.0000 0.86616  0.98363  0.87659  Biso   1.000  Hf
  O57      1.0000 0.53664  0.68477  0.69394  Biso   1.000  O
  O58      1.0000 0.53718  0.56474  0.94297  Biso   1.000  O
  O59      1.0000 0.96483  0.93407  0.69649  Biso   1.000  O
  O60      1.0000 0.96163  0.81460  0.94111  Biso   1.000  O
  O61      1.0000 0.77059  0.61783  0.74984  Biso   1.000  O
  O62      1.0000 0.77108  0.63235  0.99976  Biso   1.000  O
  O63      1.0000 0.72886  0.88273  0.99862  Biso   1.000  O
  O64      1.0000 0.72936  0.86814  0.74942  Biso   1.000  O
