data_image0
_cell_length_a       10.0568
_cell_length_b       10.2656
_cell_length_c       10.4953
_cell_angle_alpha    89.736
_cell_angle_beta     90.4368
_cell_angle_gamma    89.9141

_symmetry_space_group_name_H-M    "P 1"
_symmetry_int_tables_number       1

loop_
  _symmetry_equiv_pos_as_xyz
  'x, y, z'

loop_
  _atom_site_label
  _atom_site_occupancy
  _atom_site_fract_x
  _atom_site_fract_y
  _atom_site_fract_z
  _atom_site_thermal_displace_type
  _atom_site_B_iso_or_equiv
  _atom_site_type_symbol
  Hf1      1.0000 0.14014  0.02019  0.17162  Biso   1.000  Hf
  Hf2      1.0000 0.13634  0.22991  0.42238  Biso   1.000  Hf
  Hf3      1.0000 0.35817  0.26720  0.17655  Biso   1.000  Hf
  Hf4      1.0000 0.36031  0.48040  0.42321  Biso   1.000  Hf
  Hf5      1.0000 0.63694  0.01354  0.06918  Biso   1.000  Hf
  Hf6      1.0000 0.63214  0.22976  0.33992  Biso   1.000  Hf
  Hf7      1.0000 0.87587  0.27135  0.07268  Biso   1.000  Hf
  Hf8      1.0000 0.86255  0.48126  0.33129  Biso   1.000  Hf
  O1       1.0000 0.03929  0.16286  0.07844  Biso   1.000  O
  O2       1.0000 0.02663  0.09132  0.32738  Biso   1.000  O
  O3       1.0000 0.46893  0.41851  0.08506  Biso   1.000  O
  O4       1.0000 0.46061  0.33235  0.34091  Biso   1.000  O
  O5       1.0000 0.26928  0.12404  0.29816  Biso   1.000  O
  O6       1.0000 0.27836  0.12228  0.04376  Biso   1.000  O
  O7       1.0000 0.22111  0.37505  0.29607  Biso   1.000  O
  O8       1.0000 0.22546  0.37522  0.04384  Biso   1.000  O
  O9       1.0000 0.51008  0.13066  0.18888  Biso   1.000  O
  O10      1.0000 0.52899  0.08747  0.42928  Biso   1.000  O
  O11      1.0000 0.96843  0.41515  0.16884  Biso   1.000  O
  O12      1.0000 0.96603  0.33755  0.41950  Biso   1.000  O
  O13      1.0000 0.77720  0.12214  0.45362  Biso   1.000  O
  O14      1.0000 0.75718  0.14281  0.19229  Biso   1.000  O
  O15      1.0000 0.72362  0.37319  0.46172  Biso   1.000  O
  O16      1.0000 0.72052  0.39370  0.21449  Biso   1.000  O
  Hf9      1.0000 0.13999  0.02087  0.67024  Biso   1.000  Hf
  Hf10     1.0000 0.14559  0.22665  0.91826  Biso   1.000  Hf
  Hf11     1.0000 0.36433  0.27063  0.67175  Biso   1.000  Hf
  Hf12     1.0000 0.36171  0.47851  0.91981  Biso   1.000  Hf
  Hf13     1.0000 0.63892  0.02101  0.58183  Biso   1.000  Hf
  Hf14     1.0000 0.64037  0.22454  0.83369  Biso   1.000  Hf
  Hf15     1.0000 0.86098  0.27043  0.58138  Biso   1.000  Hf
  Hf16     1.0000 0.86282  0.47951  0.82859  Biso   1.000  Hf
  O17      1.0000 0.03237  0.16397  0.58179  Biso   1.000  O
  O18      1.0000 0.03778  0.08403  0.83057  Biso   1.000  O
  O19      1.0000 0.46731  0.41677  0.58546  Biso   1.000  O
  O20      1.0000 0.46867  0.33465  0.83529  Biso   1.000  O
  O21      1.0000 0.27924  0.12271  0.79364  Biso   1.000  O
  O22      1.0000 0.27543  0.12650  0.54564  Biso   1.000  O
  O23      1.0000 0.22599  0.37308  0.79368  Biso   1.000  O
  O24      1.0000 0.22373  0.37642  0.54534  Biso   1.000  O
  O25      1.0000 0.53439  0.16528  0.66964  Biso   1.000  O
  O26      1.0000 0.53451  0.06912  0.90456  Biso   1.000  O
  O27      1.0000 0.96681  0.41539  0.66683  Biso   1.000  O
  O28      1.0000 0.97290  0.33510  0.91260  Biso   1.000  O
  O29      1.0000 0.79108  0.11730  0.94738  Biso   1.000  O
  O30      1.0000 0.77787  0.12453  0.70281  Biso   1.000  O
  O31      1.0000 0.72711  0.37678  0.96321  Biso   1.000  O
  O32      1.0000 0.72512  0.37521  0.71097  Biso   1.000  O
  Hf17     1.0000 0.14038  0.52051  0.17160  Biso   1.000  Hf
  Hf18     1.0000 0.13784  0.72953  0.42098  Biso   1.000  Hf
  Hf19     1.0000 0.35944  0.77159  0.17257  Biso   1.000  Hf
  Hf20     1.0000 0.36135  0.97911  0.42400  Biso   1.000  Hf
  Hf21     1.0000 0.64308  0.53631  0.07932  Biso   1.000  Hf
  Hf22     1.0000 0.63878  0.73170  0.33012  Biso   1.000  Hf
  Hf23     1.0000 0.86539  0.77410  0.07855  Biso   1.000  Hf
  Hf24     1.0000 0.86053  0.97982  0.32801  Biso   1.000  Hf
  O33      1.0000 0.03424  0.66429  0.08223  Biso   1.000  O
  O34      1.0000 0.03319  0.58742  0.33134  Biso   1.000  O
  O35      1.0000 0.46639  0.90591  0.07662  Biso   1.000  O
  O36      1.0000 0.46727  0.83844  0.33246  Biso   1.000  O
  O37      1.0000 0.27556  0.62456  0.29567  Biso   1.000  O
  O38      1.0000 0.27804  0.62423  0.04535  Biso   1.000  O
  O39      1.0000 0.22295  0.87412  0.29561  Biso   1.000  O
  O40      1.0000 0.22142  0.87390  0.04600  Biso   1.000  O
  O41      1.0000 0.53221  0.66768  0.17017  Biso   1.000  O
  O42      1.0000 0.53293  0.58606  0.41786  Biso   1.000  O
  O43      1.0000 0.96658  0.91875  0.16614  Biso   1.000  O
  O44      1.0000 0.96554  0.83798  0.41509  Biso   1.000  O
  O45      1.0000 0.77623  0.62415  0.45513  Biso   1.000  O
  O46      1.0000 0.77965  0.63539  0.20562  Biso   1.000  O
  O47      1.0000 0.72314  0.87448  0.45596  Biso   1.000  O
  O48      1.0000 0.72556  0.88027  0.20582  Biso   1.000  O
  Hf25     1.0000 0.13837  0.52038  0.67048  Biso   1.000  Hf
  Hf26     1.0000 0.13976  0.72723  0.92126  Biso   1.000  Hf
  Hf27     1.0000 0.36177  0.76941  0.67114  Biso   1.000  Hf
  Hf28     1.0000 0.35998  0.97402  0.91951  Biso   1.000  Hf
  Hf29     1.0000 0.63937  0.52041  0.57970  Biso   1.000  Hf
  Hf30     1.0000 0.63955  0.72871  0.82617  Biso   1.000  Hf
  Hf31     1.0000 0.86141  0.77166  0.57822  Biso   1.000  Hf
  Hf32     1.0000 0.86545  0.97776  0.82658  Biso   1.000  Hf
  O49      1.0000 0.03232  0.66472  0.58076  Biso   1.000  O
  O50      1.0000 0.03351  0.58520  0.83120  Biso   1.000  O
  O51      1.0000 0.46745  0.91296  0.58491  Biso   1.000  O
  O52      1.0000 0.46615  0.82953  0.83160  Biso   1.000  O
  O53      1.0000 0.27643  0.62182  0.79452  Biso   1.000  O
  O54      1.0000 0.27470  0.62614  0.54487  Biso   1.000  O
  O55      1.0000 0.22391  0.87166  0.79411  Biso   1.000  O
  O56      1.0000 0.22422  0.87596  0.54425  Biso   1.000  O
  O57      1.0000 0.53339  0.66390  0.66626  Biso   1.000  O
  O58      1.0000 0.53400  0.58612  0.91738  Biso   1.000  O
  O59      1.0000 0.96955  0.91412  0.66373  Biso   1.000  O
  O60      1.0000 0.97083  0.83498  0.91676  Biso   1.000  O
  O61      1.0000 0.77949  0.62599  0.95362  Biso   1.000  O
  O62      1.0000 0.77750  0.62541  0.70417  Biso   1.000  O
  O63      1.0000 0.72680  0.87025  0.95338  Biso   1.000  O
  O64      1.0000 0.72595  0.87433  0.70500  Biso   1.000  O
  Tc1      1.0000 0.61007  0.27045  0.09944  Biso   1.000  Tc
