data_image0
_cell_length_a       10.0853
_cell_length_b       5.12419
_cell_length_c       10.4222
_cell_angle_alpha    89.8787
_cell_angle_beta     80.1195
_cell_angle_gamma    89.9177

_symmetry_space_group_name_H-M    "P 1"
_symmetry_int_tables_number       1

loop_
  _symmetry_equiv_pos_as_xyz
  'x, y, z'

loop_
  _atom_site_label
  _atom_site_occupancy
  _atom_site_fract_x
  _atom_site_fract_y
  _atom_site_fract_z
  _atom_site_thermal_displace_type
  _atom_site_B_iso_or_equiv
  _atom_site_type_symbol
  Tc1      1.0000 0.13981  0.04481  0.15002  Biso   1.000  Tc
  Hf1      1.0000 0.13969  0.46022  0.39464  Biso   1.000  Hf
  Hf2      1.0000 0.35727  0.54895  0.10527  Biso   1.000  Hf
  Hf3      1.0000 0.36094  0.95880  0.35308  Biso   1.000  Hf
  O1       1.0000 0.03720  0.32877  0.08042  Biso   1.000  O
  O2       1.0000 0.03877  0.16579  0.32106  Biso   1.000  O
  O3       1.0000 0.46526  0.83821  0.17009  Biso   1.000  O
  O4       1.0000 0.46434  0.66069  0.41905  Biso   1.000  O
  O5       1.0000 0.27661  0.25797  0.24073  Biso   1.000  O
  O6       1.0000 0.27735  0.24312  0.49107  Biso   1.000  O
  O7       1.0000 0.21792  0.76157  0.01024  Biso   1.000  O
  O8       1.0000 0.22135  0.74749  0.25812  Biso   1.000  O
  Hf4      1.0000 0.13874  0.04249  0.64606  Biso   1.000  Hf
  Hf5      1.0000 0.13832  0.45420  0.89799  Biso   1.000  Hf
  Hf6      1.0000 0.36122  0.54336  0.60454  Biso   1.000  Hf
  Hf7      1.0000 0.35813  0.95644  0.85607  Biso   1.000  Hf
  O9       1.0000 0.03387  0.33145  0.57558  Biso   1.000  O
  O10      1.0000 0.03418  0.16398  0.82810  Biso   1.000  O
  O11      1.0000 0.46301  0.84068  0.66987  Biso   1.000  O
  O12      1.0000 0.45975  0.65576  0.91926  Biso   1.000  O
  O13      1.0000 0.27701  0.25777  0.74276  Biso   1.000  O
  O14      1.0000 0.27319  0.23555  0.99816  Biso   1.000  O
  O15      1.0000 0.22307  0.75774  0.50853  Biso   1.000  O
  O16      1.0000 0.22246  0.74077  0.75925  Biso   1.000  O
  Hf8      1.0000 0.63881  0.04518  0.14522  Biso   1.000  Hf
  Hf9      1.0000 0.63964  0.45808  0.39538  Biso   1.000  Hf
  Hf10     1.0000 0.86570  0.54204  0.10378  Biso   1.000  Hf
  Hf11     1.0000 0.86204  0.95914  0.35208  Biso   1.000  Hf
  O17      1.0000 0.53446  0.34186  0.08188  Biso   1.000  O
  O18      1.0000 0.53692  0.16013  0.33138  Biso   1.000  O
  O19      1.0000 0.97466  0.83723  0.16725  Biso   1.000  O
  O20      1.0000 0.96495  0.66518  0.41915  Biso   1.000  O
  O21      1.0000 0.77747  0.25839  0.23998  Biso   1.000  O
  O22      1.0000 0.77819  0.24115  0.48943  Biso   1.000  O
  O23      1.0000 0.72310  0.75866  0.00961  Biso   1.000  O
  O24      1.0000 0.72880  0.74317  0.25827  Biso   1.000  O
  Hf12     1.0000 0.63815  0.04215  0.64659  Biso   1.000  Hf
  Hf13     1.0000 0.63742  0.45675  0.89719  Biso   1.000  Hf
  Hf14     1.0000 0.86028  0.54280  0.60384  Biso   1.000  Hf
  Hf15     1.0000 0.86042  0.95660  0.85451  Biso   1.000  Hf
  O25      1.0000 0.53723  0.34180  0.58122  Biso   1.000  O
  O26      1.0000 0.53475  0.15780  0.83267  Biso   1.000  O
  O27      1.0000 0.96479  0.83415  0.67022  Biso   1.000  O
  O28      1.0000 0.96449  0.65979  0.92025  Biso   1.000  O
  O29      1.0000 0.77581  0.25765  0.74080  Biso   1.000  O
  O30      1.0000 0.77676  0.24350  0.99064  Biso   1.000  O
  O31      1.0000 0.72332  0.75879  0.50896  Biso   1.000  O
  O32      1.0000 0.72237  0.74144  0.75972  Biso   1.000  O
