data_image0
_cell_length_a       9.98112
_cell_length_b       10.2042
_cell_length_c       5.20547
_cell_angle_alpha    89.9921
_cell_angle_beta     90.0659
_cell_angle_gamma    89.9127

_symmetry_space_group_name_H-M    "P 1"
_symmetry_int_tables_number       1

loop_
  _symmetry_equiv_pos_as_xyz
  'x, y, z'

loop_
  _atom_site_label
  _atom_site_occupancy
  _atom_site_fract_x
  _atom_site_fract_y
  _atom_site_fract_z
  _atom_site_thermal_displace_type
  _atom_site_B_iso_or_equiv
  _atom_site_type_symbol
  Ti1      1.0000 0.13101  0.02360  0.34458  Biso   1.000  Ti
  Hf1      1.0000 0.14136  0.22679  0.84133  Biso   1.000  Hf
  Hf2      1.0000 0.35944  0.26909  0.34203  Biso   1.000  Hf
  Hf3      1.0000 0.36120  0.47923  0.84314  Biso   1.000  Hf
  Hf4      1.0000 0.63797  0.02078  0.15447  Biso   1.000  Hf
  Hf5      1.0000 0.63853  0.22878  0.65769  Biso   1.000  Hf
  Hf6      1.0000 0.86191  0.26997  0.15973  Biso   1.000  Hf
  Hf7      1.0000 0.86220  0.47842  0.66052  Biso   1.000  Hf
  O1       1.0000 0.03597  0.15809  0.17144  Biso   1.000  O
  O2       1.0000 0.03654  0.08253  0.65646  Biso   1.000  O
  O3       1.0000 0.46522  0.41769  0.17287  Biso   1.000  O
  O4       1.0000 0.46523  0.33164  0.67229  Biso   1.000  O
  O5       1.0000 0.27348  0.12207  0.58346  Biso   1.000  O
  O6       1.0000 0.27509  0.12501  0.09158  Biso   1.000  O
  O7       1.0000 0.22319  0.37350  0.59059  Biso   1.000  O
  O8       1.0000 0.22257  0.37576  0.08924  Biso   1.000  O
  O9       1.0000 0.53436  0.16768  0.32848  Biso   1.000  O
  O10      1.0000 0.53275  0.08309  0.82865  Biso   1.000  O
  O11      1.0000 0.96817  0.41407  0.33369  Biso   1.000  O
  O12      1.0000 0.96736  0.33021  0.83373  Biso   1.000  O
  O13      1.0000 0.77828  0.12299  0.90866  Biso   1.000  O
  O14      1.0000 0.77741  0.12570  0.40867  Biso   1.000  O
  O15      1.0000 0.72421  0.37318  0.91362  Biso   1.000  O
  O16      1.0000 0.72410  0.37594  0.41224  Biso   1.000  O
  Hf8      1.0000 0.13979  0.52153  0.34344  Biso   1.000  Hf
  Hf9      1.0000 0.13983  0.73142  0.84228  Biso   1.000  Hf
  Hf10     1.0000 0.35794  0.77515  0.34284  Biso   1.000  Hf
  Hf11     1.0000 0.35706  0.97977  0.84244  Biso   1.000  Hf
  Hf12     1.0000 0.63809  0.52168  0.16047  Biso   1.000  Hf
  Hf13     1.0000 0.63785  0.72938  0.65731  Biso   1.000  Hf
  Hf14     1.0000 0.86237  0.77110  0.15682  Biso   1.000  Hf
  Hf15     1.0000 0.86276  0.97933  0.65515  Biso   1.000  Hf
  O17      1.0000 0.03387  0.66690  0.17101  Biso   1.000  O
  O18      1.0000 0.03449  0.58302  0.67217  Biso   1.000  O
  O19      1.0000 0.46616  0.91689  0.16807  Biso   1.000  O
  O20      1.0000 0.46474  0.83388  0.67061  Biso   1.000  O
  O21      1.0000 0.27700  0.62478  0.58947  Biso   1.000  O
  O22      1.0000 0.27710  0.62797  0.08919  Biso   1.000  O
  O23      1.0000 0.21984  0.87693  0.58734  Biso   1.000  O
  O24      1.0000 0.21890  0.88063  0.09411  Biso   1.000  O
  O25      1.0000 0.53344  0.66915  0.32891  Biso   1.000  O
  O26      1.0000 0.53488  0.58202  0.82866  Biso   1.000  O
  O27      1.0000 0.97493  0.91916  0.32802  Biso   1.000  O
  O28      1.0000 0.96562  0.83306  0.82880  Biso   1.000  O
  O29      1.0000 0.77746  0.62424  0.91350  Biso   1.000  O
  O30      1.0000 0.77744  0.62577  0.41290  Biso   1.000  O
  O31      1.0000 0.72332  0.87405  0.90872  Biso   1.000  O
  O32      1.0000 0.72758  0.87638  0.40860  Biso   1.000  O
