data_image0
_cell_length_a       9.99473
_cell_length_b       10.167
_cell_length_c       4.99796
_cell_angle_alpha    90
_cell_angle_beta     90.0004
_cell_angle_gamma    90

_symmetry_space_group_name_H-M    "P 1"
_symmetry_int_tables_number       1

loop_
  _symmetry_equiv_pos_as_xyz
  'x, y, z'

loop_
  _atom_site_label
  _atom_site_occupancy
  _atom_site_fract_x
  _atom_site_fract_y
  _atom_site_fract_z
  _atom_site_thermal_displace_type
  _atom_site_B_iso_or_equiv
  _atom_site_type_symbol
  Ti1      1.0000 0.12491  0.00005  0.24982  Biso   1.000  Ti
  Hf1      1.0000 0.12491  0.25196  0.74982  Biso   1.000  Hf
  Hf2      1.0000 0.37413  0.24924  0.25722  Biso   1.000  Hf
  Hf3      1.0000 0.37233  0.00005  0.74982  Biso   1.000  Hf
  O1       1.0000 0.98407  0.15086  0.95861  Biso   1.000  O
  O2       1.0000 0.01226  0.09764  0.46729  Biso   1.000  O
  O3       1.0000 0.99820  0.35070  0.49861  Biso   1.000  O
  O4       1.0000 0.00180  0.39861  0.99884  Biso   1.000  O
  O5       1.0000 0.26575  0.15086  0.54102  Biso   1.000  O
  O6       1.0000 0.23756  0.09764  0.03234  Biso   1.000  O
  O7       1.0000 0.25162  0.35069  0.00102  Biso   1.000  O
  O8       1.0000 0.24801  0.39861  0.50080  Biso   1.000  O
  Hf4      1.0000 0.12491  0.50005  0.24982  Biso   1.000  Hf
  Hf5      1.0000 0.12491  0.74815  0.74982  Biso   1.000  Hf
  Hf6      1.0000 0.37413  0.75087  0.24242  Biso   1.000  Hf
  Hf7      1.0000 0.37738  0.50005  0.74982  Biso   1.000  Hf
  O9       1.0000 0.99820  0.64941  0.00102  Biso   1.000  O
  O10      1.0000 0.00180  0.60150  0.50079  Biso   1.000  O
  O11      1.0000 0.98407  0.84924  0.54102  Biso   1.000  O
  O12      1.0000 0.01226  0.90246  0.03235  Biso   1.000  O
  O13      1.0000 0.25162  0.64941  0.49861  Biso   1.000  O
  O14      1.0000 0.24801  0.60150  0.99884  Biso   1.000  O
  O15      1.0000 0.26575  0.84924  0.95861  Biso   1.000  O
  O16      1.0000 0.23755  0.90246  0.46729  Biso   1.000  O
  Hf8      1.0000 0.62491  0.00005  0.24982  Biso   1.000  Hf
  Hf9      1.0000 0.62491  0.24791  0.74982  Biso   1.000  Hf
  Hf10     1.0000 0.87569  0.24924  0.24242  Biso   1.000  Hf
  Hf11     1.0000 0.87749  0.00005  0.74982  Biso   1.000  Hf
  O17      1.0000 0.48660  0.14570  0.98514  Biso   1.000  O
  O18      1.0000 0.50855  0.10501  0.49522  Biso   1.000  O
  O19      1.0000 0.49768  0.35440  0.50451  Biso   1.000  O
  O20      1.0000 0.50204  0.39519  0.00225  Biso   1.000  O
  O21      1.0000 0.76321  0.14570  0.51449  Biso   1.000  O
  O22      1.0000 0.74127  0.10501  0.00441  Biso   1.000  O
  O23      1.0000 0.75214  0.35440  0.99513  Biso   1.000  O
  O24      1.0000 0.74778  0.39519  0.49739  Biso   1.000  O
  Hf12     1.0000 0.62491  0.50005  0.24982  Biso   1.000  Hf
  Hf13     1.0000 0.62491  0.75220  0.74982  Biso   1.000  Hf
  Hf14     1.0000 0.87569  0.75087  0.25722  Biso   1.000  Hf
  Hf15     1.0000 0.87244  0.50005  0.74982  Biso   1.000  Hf
  O25      1.0000 0.49768  0.64571  0.99513  Biso   1.000  O
  O26      1.0000 0.50204  0.60492  0.49739  Biso   1.000  O
  O27      1.0000 0.48660  0.85441  0.51449  Biso   1.000  O
  O28      1.0000 0.50855  0.89510  0.00441  Biso   1.000  O
  O29      1.0000 0.75214  0.64571  0.50451  Biso   1.000  O
  O30      1.0000 0.74778  0.60492  0.00225  Biso   1.000  O
  O31      1.0000 0.76321  0.85441  0.98514  Biso   1.000  O
  O32      1.0000 0.74127  0.89510  0.49522  Biso   1.000  O
