data_image0
_cell_length_a       5.13456
_cell_length_b       10.2121
_cell_length_c       10.5809
_cell_angle_alpha    89.6904
_cell_angle_beta     79.3922
_cell_angle_gamma    89.6412

_symmetry_space_group_name_H-M    "P 1"
_symmetry_int_tables_number       1

loop_
  _symmetry_equiv_pos_as_xyz
  'x, y, z'

loop_
  _atom_site_label
  _atom_site_occupancy
  _atom_site_fract_x
  _atom_site_fract_y
  _atom_site_fract_z
  _atom_site_thermal_displace_type
  _atom_site_B_iso_or_equiv
  _atom_site_type_symbol
  Hf1      1.0000 0.27188  0.02092  0.14603  Biso   1.000  Hf
  Hf2      1.0000 0.25530  0.23074  0.40034  Biso   1.000  Hf
  Hf3      1.0000 0.71876  0.26920  0.09578  Biso   1.000  Hf
  Hf4      1.0000 0.72916  0.49694  0.35467  Biso   1.000  Hf
  O1       1.0000 0.05476  0.15378  0.06795  Biso   1.000  O
  O2       1.0000 0.03845  0.09206  0.32224  Biso   1.000  O
  O3       1.0000 0.96019  0.39078  0.19389  Biso   1.000  O
  O4       1.0000 0.96514  0.36902  0.44342  Biso   1.000  O
  O5       1.0000 0.54127  0.12426  0.23890  Biso   1.000  O
  O6       1.0000 0.55248  0.12068  0.48629  Biso   1.000  O
  O7       1.0000 0.44627  0.37819  0.00699  Biso   1.000  O
  O8       1.0000 0.48145  0.36945  0.26091  Biso   1.000  O
  Hf5      1.0000 0.27638  0.02240  0.64624  Biso   1.000  Hf
  Hf6      1.0000 0.27329  0.22802  0.89476  Biso   1.000  Hf
  Hf7      1.0000 0.72848  0.27399  0.60898  Biso   1.000  Hf
  Hf8      1.0000 0.72334  0.47998  0.85427  Biso   1.000  Hf
  O9       1.0000 0.05666  0.15816  0.57482  Biso   1.000  O
  O10      1.0000 0.05624  0.09189  0.82140  Biso   1.000  O
  O11      1.0000 0.94635  0.40683  0.68550  Biso   1.000  O
  O12      1.0000 0.94577  0.34749  0.93057  Biso   1.000  O
  O13      1.0000 0.54495  0.12702  0.74076  Biso   1.000  O
  O14      1.0000 0.54425  0.12183  0.98770  Biso   1.000  O
  O15      1.0000 0.47649  0.37207  0.50305  Biso   1.000  O
  O16      1.0000 0.45094  0.37408  0.75994  Biso   1.000  O
  Hf9      1.0000 0.27841  0.51733  0.14782  Biso   1.000  Hf
  Hf10     1.0000 0.26980  0.73069  0.39858  Biso   1.000  Hf
  Hf11     1.0000 0.72296  0.77032  0.10274  Biso   1.000  Hf
  Hf12     1.0000 0.70823  0.97077  0.35335  Biso   1.000  Hf
  O17      1.0000 0.05639  0.65099  0.06961  Biso   1.000  O
  O18      1.0000 0.06687  0.60078  0.31503  Biso   1.000  O
  O19      1.0000 0.93477  0.90599  0.17826  Biso   1.000  O
  O20      1.0000 0.93453  0.84144  0.43114  Biso   1.000  O
  O21      1.0000 0.55053  0.62861  0.23876  Biso   1.000  O
  O22      1.0000 0.53905  0.62619  0.49450  Biso   1.000  O
  O23      1.0000 0.44824  0.87776  0.01141  Biso   1.000  O
  O24      1.0000 0.43919  0.86991  0.25983  Biso   1.000  O
  Hf13     1.0000 0.27550  0.51997  0.64628  Biso   1.000  Hf
  Hf14     1.0000 0.27460  0.72641  0.89662  Biso   1.000  Hf
  Hf15     1.0000 0.72167  0.77240  0.60716  Biso   1.000  Hf
  Hf16     1.0000 0.72239  0.97791  0.85400  Biso   1.000  Hf
  O25      1.0000 0.05189  0.65564  0.57153  Biso   1.000  O
  O26      1.0000 0.06038  0.59379  0.81886  Biso   1.000  O
  O27      1.0000 0.93950  0.90903  0.67893  Biso   1.000  O
  O28      1.0000 0.93849  0.83997  0.92832  Biso   1.000  O
  O29      1.0000 0.54726  0.62705  0.74038  Biso   1.000  O
  O30      1.0000 0.54912  0.62252  0.99041  Biso   1.000  O
  O31      1.0000 0.44462  0.87655  0.51272  Biso   1.000  O
  O32      1.0000 0.45008  0.87218  0.76202  Biso   1.000  O
  Ti1      1.0000 0.75991  0.24598  0.34134  Biso   1.000  Ti
