data_image0
_cell_length_a       10.1772
_cell_length_b       10.2993
_cell_length_c       5.23817
_cell_angle_alpha    90.0554
_cell_angle_beta     80.4166
_cell_angle_gamma    90.0661

_symmetry_space_group_name_H-M    "P 1"
_symmetry_int_tables_number       1

loop_
  _symmetry_equiv_pos_as_xyz
  'x, y, z'

loop_
  _atom_site_label
  _atom_site_occupancy
  _atom_site_fract_x
  _atom_site_fract_y
  _atom_site_fract_z
  _atom_site_thermal_displace_type
  _atom_site_B_iso_or_equiv
  _atom_site_type_symbol
  Tl1      1.0000 0.13499  0.01545  0.29002  Biso   1.000  Tl
  Hf1      1.0000 0.14025  0.22978  0.79017  Biso   1.000  Hf
  Hf2      1.0000 0.35954  0.26899  0.20686  Biso   1.000  Hf
  Hf3      1.0000 0.36078  0.47788  0.70644  Biso   1.000  Hf
  O1       1.0000 0.03654  0.18289  0.15927  Biso   1.000  O
  O2       1.0000 0.02887  0.08210  0.68993  Biso   1.000  O
  O3       1.0000 0.46542  0.41574  0.34198  Biso   1.000  O
  O4       1.0000 0.46687  0.33408  0.84206  Biso   1.000  O
  O5       1.0000 0.28146  0.13113  0.48604  Biso   1.000  O
  O6       1.0000 0.28436  0.12765  0.96406  Biso   1.000  O
  O7       1.0000 0.22481  0.38059  0.01640  Biso   1.000  O
  O8       1.0000 0.22313  0.37150  0.51590  Biso   1.000  O
  Hf4      1.0000 0.13977  0.52114  0.28971  Biso   1.000  Hf
  Hf5      1.0000 0.14067  0.72800  0.79107  Biso   1.000  Hf
  Hf6      1.0000 0.36312  0.77061  0.20849  Biso   1.000  Hf
  Hf7      1.0000 0.36205  0.97960  0.70642  Biso   1.000  Hf
  O9       1.0000 0.03577  0.66978  0.16145  Biso   1.000  O
  O10      1.0000 0.03509  0.58157  0.65828  Biso   1.000  O
  O11      1.0000 0.46770  0.91730  0.34046  Biso   1.000  O
  O12      1.0000 0.46830  0.83304  0.84250  Biso   1.000  O
  O13      1.0000 0.27688  0.62541  0.47812  Biso   1.000  O
  O14      1.0000 0.27646  0.62015  0.97944  Biso   1.000  O
  O15      1.0000 0.23163  0.87328  0.00841  Biso   1.000  O
  O16      1.0000 0.23175  0.86267  0.52321  Biso   1.000  O
  Hf8      1.0000 0.63974  0.02148  0.29382  Biso   1.000  Hf
  Hf9      1.0000 0.63859  0.22947  0.79314  Biso   1.000  Hf
  Hf10     1.0000 0.85986  0.27202  0.20785  Biso   1.000  Hf
  Hf11     1.0000 0.86087  0.47908  0.70673  Biso   1.000  Hf
  O17      1.0000 0.53521  0.16783  0.15880  Biso   1.000  O
  O18      1.0000 0.53718  0.08206  0.65834  Biso   1.000  O
  O19      1.0000 0.96280  0.42219  0.33698  Biso   1.000  O
  O20      1.0000 0.96381  0.33376  0.83714  Biso   1.000  O
  O21      1.0000 0.77633  0.13036  0.48428  Biso   1.000  O
  O22      1.0000 0.77429  0.12183  0.98527  Biso   1.000  O
  O23      1.0000 0.72335  0.37935  0.01818  Biso   1.000  O
  O24      1.0000 0.72354  0.37163  0.51912  Biso   1.000  O
  Hf12     1.0000 0.63816  0.51961  0.29102  Biso   1.000  Hf
  Hf13     1.0000 0.63827  0.72785  0.79025  Biso   1.000  Hf
  Hf14     1.0000 0.85923  0.76848  0.20659  Biso   1.000  Hf
  Hf15     1.0000 0.85730  0.97847  0.71604  Biso   1.000  Hf
  O25      1.0000 0.53549  0.66573  0.15673  Biso   1.000  O
  O26      1.0000 0.53388  0.58241  0.65590  Biso   1.000  O
  O27      1.0000 0.94774  0.91904  0.34633  Biso   1.000  O
  O28      1.0000 0.96514  0.83057  0.84017  Biso   1.000  O
  O29      1.0000 0.77479  0.62834  0.47921  Biso   1.000  O
  O30      1.0000 0.77537  0.62008  0.97867  Biso   1.000  O
  O31      1.0000 0.72350  0.87803  0.02019  Biso   1.000  O
  O32      1.0000 0.71932  0.87000  0.52258  Biso   1.000  O
