data_image0
_cell_length_a       10.0025
_cell_length_b       10.4161
_cell_length_c       10.1006
_cell_angle_alpha    89.4332
_cell_angle_beta     90.7564
_cell_angle_gamma    90.7852

_symmetry_space_group_name_H-M    "P 1"
_symmetry_int_tables_number       1

loop_
  _symmetry_equiv_pos_as_xyz
  'x, y, z'

loop_
  _atom_site_label
  _atom_site_occupancy
  _atom_site_fract_x
  _atom_site_fract_y
  _atom_site_fract_z
  _atom_site_thermal_displace_type
  _atom_site_B_iso_or_equiv
  _atom_site_type_symbol
  Hf1      1.0000 0.14909  0.99844  0.11054  Biso   1.000  Hf
  Hf2      1.0000 0.12795  0.23249  0.39745  Biso   1.000  Hf
  Hf3      1.0000 0.36509  0.26561  0.12105  Biso   1.000  Hf
  Hf4      1.0000 0.36822  0.48499  0.37361  Biso   1.000  Hf
  O1       1.0000 0.96016  0.18410  0.27746  Biso   1.000  O
  O2       1.0000 0.04821  0.05475  0.45303  Biso   1.000  O
  O3       1.0000 0.45604  0.43661  0.19150  Biso   1.000  O
  O4       1.0000 0.46302  0.31844  0.44551  Biso   1.000  O
  O5       1.0000 0.25353  0.11252  0.24858  Biso   1.000  O
  O6       1.0000 0.27862  0.13182  0.49907  Biso   1.000  O
  O7       1.0000 0.23581  0.38566  0.49890  Biso   1.000  O
  O8       1.0000 0.21696  0.36150  0.24926  Biso   1.000  O
  Hf5      1.0000 0.14190  0.00660  0.62543  Biso   1.000  Hf
  Hf6      1.0000 0.14261  0.22434  0.84754  Biso   1.000  Hf
  Hf7      1.0000 0.37370  0.26749  0.62447  Biso   1.000  Hf
  Hf8      1.0000 0.36963  0.48444  0.87317  Biso   1.000  Hf
  O9       1.0000 0.05399  0.18029  0.66847  Biso   1.000  O
  O10      1.0000 0.05031  0.05254  0.92463  Biso   1.000  O
  O11      1.0000 0.46652  0.43498  0.69465  Biso   1.000  O
  O12      1.0000 0.46873  0.31501  0.94262  Biso   1.000  O
  O13      1.0000 0.28079  0.11336  0.74405  Biso   1.000  O
  O14      1.0000 0.28948  0.12022  0.99186  Biso   1.000  O
  O15      1.0000 0.23705  0.38893  0.99537  Biso   1.000  O
  O16      1.0000 0.23352  0.36748  0.74262  Biso   1.000  O
  Hf9      1.0000 0.12951  0.52261  0.12758  Biso   1.000  Hf
  Hf10     1.0000 0.13421  0.73640  0.37554  Biso   1.000  Hf
  Hf11     1.0000 0.36839  0.76053  0.12543  Biso   1.000  Hf
  Hf12     1.0000 0.36522  0.98571  0.37416  Biso   1.000  Hf
  O17      1.0000 0.03788  0.68698  0.19238  Biso   1.000  O
  O18      1.0000 0.03746  0.57317  0.44028  Biso   1.000  O
  O19      1.0000 0.46013  0.93400  0.19530  Biso   1.000  O
  O20      1.0000 0.46809  0.81771  0.44332  Biso   1.000  O
  O21      1.0000 0.26961  0.61625  0.24930  Biso   1.000  O
  O22      1.0000 0.27187  0.63409  0.49736  Biso   1.000  O
  O23      1.0000 0.23599  0.88107  0.49683  Biso   1.000  O
  O24      1.0000 0.23338  0.86185  0.24525  Biso   1.000  O
  Hf13     1.0000 0.13358  0.51707  0.61844  Biso   1.000  Hf
  Hf14     1.0000 0.13429  0.72974  0.87040  Biso   1.000  Hf
  Hf15     1.0000 0.37269  0.76384  0.62263  Biso   1.000  Hf
  Hf16     1.0000 0.37600  0.97801  0.87119  Biso   1.000  Hf
  O25      1.0000 0.04235  0.68986  0.68867  Biso   1.000  O
  O26      1.0000 0.03512  0.56094  0.94605  Biso   1.000  O
  O27      1.0000 0.47350  0.93036  0.69470  Biso   1.000  O
  O28      1.0000 0.47425  0.81634  0.95203  Biso   1.000  O
  O29      1.0000 0.27047  0.61421  0.74783  Biso   1.000  O
  O30      1.0000 0.26938  0.63221  0.99880  Biso   1.000  O
  O31      1.0000 0.23869  0.87313  0.99297  Biso   1.000  O
  O32      1.0000 0.23961  0.86165  0.74768  Biso   1.000  O
  Hf17     1.0000 0.62720  0.00812  0.12177  Biso   1.000  Hf
  Hf18     1.0000 0.62865  0.23007  0.39399  Biso   1.000  Hf
  Hf19     1.0000 0.81166  0.26383  0.15650  Biso   1.000  Hf
  Hf20     1.0000 0.86532  0.48540  0.38626  Biso   1.000  Hf
  O33      1.0000 0.52958  0.18452  0.19245  Biso   1.000  O
  O34      1.0000 0.53278  0.06581  0.45321  Biso   1.000  O
  O35      1.0000 0.94908  0.43924  0.20560  Biso   1.000  O
  O36      1.0000 0.97573  0.33287  0.47114  Biso   1.000  O
  O37      1.0000 0.73564  0.10712  0.26287  Biso   1.000  O
  O38      1.0000 0.77859  0.13800  0.50733  Biso   1.000  O
  O39      1.0000 0.73140  0.38039  0.51044  Biso   1.000  O
  O40      1.0000 0.70477  0.37913  0.26952  Biso   1.000  O
  Hf21     1.0000 0.64395  0.01602  0.62721  Biso   1.000  Hf
  Hf22     1.0000 0.63765  0.23319  0.87658  Biso   1.000  Hf
  Hf23     1.0000 0.87556  0.27554  0.64371  Biso   1.000  Hf
  Hf24     1.0000 0.86566  0.48237  0.87245  Biso   1.000  Hf
  O41      1.0000 0.54360  0.18497  0.69199  Biso   1.000  O
  O42      1.0000 0.54523  0.06289  0.93802  Biso   1.000  O
  O43      1.0000 0.95366  0.45960  0.68076  Biso   1.000  O
  O44      1.0000 0.95523  0.30346  0.85428  Biso   1.000  O
  O45      1.0000 0.77509  0.11747  0.75701  Biso   1.000  O
  O46      1.0000 0.77282  0.13344  0.01043  Biso   1.000  O
  O47      1.0000 0.73426  0.38274  0.00825  Biso   1.000  O
  O48      1.0000 0.72227  0.37415  0.75549  Biso   1.000  O
  Hf25     1.0000 0.63130  0.52258  0.13002  Biso   1.000  Hf
  Hf26     1.0000 0.63914  0.73866  0.37778  Biso   1.000  Hf
  Hf27     1.0000 0.86638  0.76735  0.12711  Biso   1.000  Hf
  Hf28     1.0000 0.87759  0.99794  0.36695  Biso   1.000  Hf
  O49      1.0000 0.53706  0.68473  0.19890  Biso   1.000  O
  O50      1.0000 0.53567  0.56841  0.44681  Biso   1.000  O
  O51      1.0000 0.96909  0.94376  0.18450  Biso   1.000  O
  O52      1.0000 0.96590  0.81990  0.43937  Biso   1.000  O
  O53      1.0000 0.77097  0.62156  0.25458  Biso   1.000  O
  O54      1.0000 0.77041  0.63543  0.50286  Biso   1.000  O
  O55      1.0000 0.73608  0.88876  0.49756  Biso   1.000  O
  O56      1.0000 0.73436  0.86737  0.24707  Biso   1.000  O
  Hf29     1.0000 0.63679  0.51778  0.62789  Biso   1.000  Hf
  Hf30     1.0000 0.63922  0.73375  0.87640  Biso   1.000  Hf
  Hf31     1.0000 0.87076  0.77074  0.62267  Biso   1.000  Hf
  Hf32     1.0000 0.87070  0.98116  0.87612  Biso   1.000  Hf
  O57      1.0000 0.53800  0.68229  0.69863  Biso   1.000  O
  O58      1.0000 0.53610  0.56842  0.94894  Biso   1.000  O
  O59      1.0000 0.96896  0.93355  0.69700  Biso   1.000  O
  O60      1.0000 0.96862  0.81129  0.94563  Biso   1.000  O
  O61      1.0000 0.77309  0.62107  0.75364  Biso   1.000  O
  O62      1.0000 0.76977  0.63346  0.00424  Biso   1.000  O
  O63      1.0000 0.73481  0.88193  0.99921  Biso   1.000  O
  O64      1.0000 0.73613  0.86706  0.74910  Biso   1.000  O
  Tl1      1.0000 0.06166  0.25253  0.09228  Biso   1.000  Tl
