data_image0
_cell_length_a       10.0927
_cell_length_b       5.1205
_cell_length_c       10.4526
_cell_angle_alpha    89.9522
_cell_angle_beta     79.9798
_cell_angle_gamma    89.7466

_symmetry_space_group_name_H-M    "P 1"
_symmetry_int_tables_number       1

loop_
  _symmetry_equiv_pos_as_xyz
  'x, y, z'

loop_
  _atom_site_label
  _atom_site_occupancy
  _atom_site_fract_x
  _atom_site_fract_y
  _atom_site_fract_z
  _atom_site_thermal_displace_type
  _atom_site_B_iso_or_equiv
  _atom_site_type_symbol
  W1       1.0000 0.13989  0.04424  0.14764  Biso   1.000  W
  Hf1      1.0000 0.13967  0.45869  0.39536  Biso   1.000  Hf
  Hf2      1.0000 0.35717  0.55395  0.10472  Biso   1.000  Hf
  Hf3      1.0000 0.36191  0.95866  0.35356  Biso   1.000  Hf
  O1       1.0000 0.03815  0.32533  0.08031  Biso   1.000  O
  O2       1.0000 0.03974  0.15997  0.32217  Biso   1.000  O
  O3       1.0000 0.46692  0.83618  0.17257  Biso   1.000  O
  O4       1.0000 0.46559  0.66414  0.42082  Biso   1.000  O
  O5       1.0000 0.27629  0.25647  0.23893  Biso   1.000  O
  O6       1.0000 0.27770  0.24353  0.49072  Biso   1.000  O
  O7       1.0000 0.21269  0.75957  0.00981  Biso   1.000  O
  O8       1.0000 0.22160  0.74732  0.25961  Biso   1.000  O
  Hf4      1.0000 0.13831  0.04222  0.64588  Biso   1.000  Hf
  Hf5      1.0000 0.13910  0.45416  0.89638  Biso   1.000  Hf
  Hf6      1.0000 0.36132  0.54391  0.60438  Biso   1.000  Hf
  Hf7      1.0000 0.35829  0.95851  0.85554  Biso   1.000  Hf
  O9       1.0000 0.03371  0.33066  0.57560  Biso   1.000  O
  O10      1.0000 0.03323  0.16486  0.82736  Biso   1.000  O
  O11      1.0000 0.46377  0.83857  0.67123  Biso   1.000  O
  O12      1.0000 0.46028  0.66332  0.92159  Biso   1.000  O
  O13      1.0000 0.27648  0.25725  0.74119  Biso   1.000  O
  O14      1.0000 0.27533  0.24033  0.99554  Biso   1.000  O
  O15      1.0000 0.22309  0.75686  0.50867  Biso   1.000  O
  O16      1.0000 0.22267  0.74150  0.75922  Biso   1.000  O
  Hf8      1.0000 0.63871  0.04691  0.14552  Biso   1.000  Hf
  Hf9      1.0000 0.64037  0.45787  0.39546  Biso   1.000  Hf
  Hf10     1.0000 0.86411  0.54326  0.10317  Biso   1.000  Hf
  Hf11     1.0000 0.86178  0.95738  0.35291  Biso   1.000  Hf
  O17      1.0000 0.53354  0.34117  0.08097  Biso   1.000  O
  O18      1.0000 0.53676  0.16413  0.33065  Biso   1.000  O
  O19      1.0000 0.97671  0.82891  0.16859  Biso   1.000  O
  O20      1.0000 0.96481  0.66313  0.41977  Biso   1.000  O
  O21      1.0000 0.77882  0.25669  0.23967  Biso   1.000  O
  O22      1.0000 0.77845  0.24074  0.48959  Biso   1.000  O
  O23      1.0000 0.72210  0.75975  0.00976  Biso   1.000  O
  O24      1.0000 0.72879  0.74301  0.25878  Biso   1.000  O
  Hf12     1.0000 0.63812  0.04289  0.64682  Biso   1.000  Hf
  Hf13     1.0000 0.63715  0.45756  0.89747  Biso   1.000  Hf
  Hf14     1.0000 0.86006  0.54238  0.60432  Biso   1.000  Hf
  Hf15     1.0000 0.86028  0.95601  0.85451  Biso   1.000  Hf
  O25      1.0000 0.53687  0.33971  0.58006  Biso   1.000  O
  O26      1.0000 0.53346  0.16325  0.83108  Biso   1.000  O
  O27      1.0000 0.96487  0.83253  0.67063  Biso   1.000  O
  O28      1.0000 0.96401  0.66003  0.92094  Biso   1.000  O
  O29      1.0000 0.77538  0.25753  0.74073  Biso   1.000  O
  O30      1.0000 0.77635  0.24429  0.99029  Biso   1.000  O
  O31      1.0000 0.72355  0.75856  0.50938  Biso   1.000  O
  O32      1.0000 0.72208  0.74209  0.76014  Biso   1.000  O
