data_image0
_cell_length_a       10.0268
_cell_length_b       5.27457
_cell_length_c       10.1168
_cell_angle_alpha    89.1225
_cell_angle_beta     89.0154
_cell_angle_gamma    90.1803

_symmetry_space_group_name_H-M    "P 1"
_symmetry_int_tables_number       1

loop_
  _symmetry_equiv_pos_as_xyz
  'x, y, z'

loop_
  _atom_site_label
  _atom_site_occupancy
  _atom_site_fract_x
  _atom_site_fract_y
  _atom_site_fract_z
  _atom_site_thermal_displace_type
  _atom_site_B_iso_or_equiv
  _atom_site_type_symbol
  Hf1      1.0000 0.12345  0.13313  0.11196  Biso   1.000  Hf
  Hf2      1.0000 0.13734  0.44848  0.38990  Biso   1.000  Hf
  Hf3      1.0000 0.38244  0.53860  0.12647  Biso   1.000  Hf
  Hf4      1.0000 0.36626  0.95467  0.37645  Biso   1.000  Hf
  O1       1.0000 0.00749  0.37835  0.23671  Biso   1.000  O
  O2       1.0000 0.04035  0.10979  0.45012  Biso   1.000  O
  O3       1.0000 0.47471  0.85500  0.20583  Biso   1.000  O
  O4       1.0000 0.46967  0.62122  0.45173  Biso   1.000  O
  O5       1.0000 0.26993  0.20795  0.25209  Biso   1.000  O
  O6       1.0000 0.27579  0.24701  0.50505  Biso   1.000  O
  O7       1.0000 0.23347  0.75039  0.50563  Biso   1.000  O
  O8       1.0000 0.24298  0.69014  0.25934  Biso   1.000  O
  Hf5      1.0000 0.13557  0.01099  0.62774  Biso   1.000  Hf
  Hf6      1.0000 0.11618  0.45578  0.85021  Biso   1.000  Hf
  Hf7      1.0000 0.36882  0.51669  0.62724  Biso   1.000  Hf
  Hf8      1.0000 0.37946  0.96444  0.86566  Biso   1.000  Hf
  O9       1.0000 0.03292  0.34883  0.67181  Biso   1.000  O
  O10      1.0000 0.03031  0.12438  0.92152  Biso   1.000  O
  O11      1.0000 0.47205  0.84319  0.69256  Biso   1.000  O
  O12      1.0000 0.47336  0.64236  0.94441  Biso   1.000  O
  O13      1.0000 0.26533  0.21688  0.75194  Biso   1.000  O
  O14      1.0000 0.24959  0.38249  0.99684  Biso   1.000  O
  O15      1.0000 0.25473  0.87184  0.01537  Biso   1.000  O
  O16      1.0000 0.23739  0.72119  0.75406  Biso   1.000  O
  Hf9      1.0000 0.63591  0.02499  0.12824  Biso   1.000  Hf
  Hf10     1.0000 0.63402  0.45815  0.37425  Biso   1.000  Hf
  Hf11     1.0000 0.85400  0.52275  0.12108  Biso   1.000  Hf
  Hf12     1.0000 0.87444  0.96265  0.37064  Biso   1.000  Hf
  O17      1.0000 0.53805  0.35405  0.20140  Biso   1.000  O
  O18      1.0000 0.53407  0.12389  0.44833  Biso   1.000  O
  O19      1.0000 0.97129  0.87627  0.19037  Biso   1.000  O
  O20      1.0000 0.96975  0.63683  0.44934  Biso   1.000  O
  O21      1.0000 0.76498  0.21503  0.24807  Biso   1.000  O
  O22      1.0000 0.77025  0.26431  0.49476  Biso   1.000  O
  O23      1.0000 0.73510  0.76551  0.49754  Biso   1.000  O
  O24      1.0000 0.73322  0.72603  0.25155  Biso   1.000  O
  Hf13     1.0000 0.63650  0.02353  0.61916  Biso   1.000  Hf
  Hf14     1.0000 0.63345  0.45743  0.87324  Biso   1.000  Hf
  Hf15     1.0000 0.86383  0.52861  0.61778  Biso   1.000  Hf
  Hf16     1.0000 0.85988  0.95919  0.86980  Biso   1.000  Hf
  O25      1.0000 0.53011  0.33978  0.70442  Biso   1.000  O
  O26      1.0000 0.52614  0.14668  0.95840  Biso   1.000  O
  O27      1.0000 0.96881  0.83881  0.70043  Biso   1.000  O
  O28      1.0000 0.96398  0.64654  0.94932  Biso   1.000  O
  O29      1.0000 0.76854  0.22374  0.74370  Biso   1.000  O
  O30      1.0000 0.76874  0.25758  0.99422  Biso   1.000  O
  O31      1.0000 0.72438  0.76172  0.99824  Biso   1.000  O
  O32      1.0000 0.72996  0.72344  0.74737  Biso   1.000  O
  W1       1.0000 0.11092  0.62807  0.10209  Biso   1.000  W
