data_image0
_cell_length_a       10.1181
_cell_length_b       5.13226
_cell_length_c       10.1182
_cell_angle_alpha    90.0001
_cell_angle_beta     90
_cell_angle_gamma    89.9999

_symmetry_space_group_name_H-M    "P 1"
_symmetry_int_tables_number       1

loop_
  _symmetry_equiv_pos_as_xyz
  'x, y, z'

loop_
  _atom_site_label
  _atom_site_occupancy
  _atom_site_fract_x
  _atom_site_fract_y
  _atom_site_fract_z
  _atom_site_thermal_displace_type
  _atom_site_B_iso_or_equiv
  _atom_site_type_symbol
  Hf1      1.0000 0.12491  0.00011  0.12491  Biso   1.000  Hf
  Hf2      1.0000 0.12491  0.50011  0.39703  Biso   1.000  Hf
  Hf3      1.0000 0.39703  0.50011  0.12491  Biso   1.000  Hf
  Hf4      1.0000 0.37089  0.00117  0.37089  Biso   1.000  Hf
  O1       1.0000 0.98840  0.28579  0.98835  Biso   1.000  O
  O2       1.0000 0.00164  0.21645  0.24811  Biso   1.000  O
  O3       1.0000 0.98840  0.71443  0.26146  Biso   1.000  O
  O4       1.0000 0.00164  0.78378  0.00170  Biso   1.000  O
  O5       1.0000 0.26141  0.28579  0.26146  Biso   1.000  O
  O6       1.0000 0.24818  0.21644  0.00170  Biso   1.000  O
  O7       1.0000 0.26142  0.71443  0.98835  Biso   1.000  O
  O8       1.0000 0.24818  0.78377  0.24811  Biso   1.000  O
  Hf5      1.0000 0.12491  0.00011  0.62491  Biso   1.000  Hf
  Hf6      1.0000 0.12491  0.50011  0.85279  Biso   1.000  Hf
  Hf7      1.0000 0.38038  0.50011  0.62491  Biso   1.000  Hf
  Hf8      1.0000 0.37089  0.99904  0.87892  Biso   1.000  Hf
  O9       1.0000 0.98865  0.28281  0.49777  Biso   1.000  O
  O10      1.0000 0.00658  0.21405  0.74484  Biso   1.000  O
  O11      1.0000 0.98866  0.71740  0.75205  Biso   1.000  O
  O12      1.0000 0.00658  0.78617  0.50498  Biso   1.000  O
  O13      1.0000 0.26116  0.28281  0.75205  Biso   1.000  O
  O14      1.0000 0.24324  0.21404  0.50498  Biso   1.000  O
  O15      1.0000 0.26116  0.71740  0.49777  Biso   1.000  O
  O16      1.0000 0.24324  0.78616  0.74484  Biso   1.000  O
  Hf9      1.0000 0.62491  0.00011  0.12491  Biso   1.000  Hf
  Hf10     1.0000 0.62491  0.50011  0.38039  Biso   1.000  Hf
  Hf11     1.0000 0.85279  0.50011  0.12491  Biso   1.000  Hf
  Hf12     1.0000 0.87893  0.99904  0.37089  Biso   1.000  Hf
  O17      1.0000 0.49780  0.28282  0.98864  Biso   1.000  O
  O18      1.0000 0.50493  0.21403  0.24321  Biso   1.000  O
  O19      1.0000 0.49781  0.71739  0.26117  Biso   1.000  O
  O20      1.0000 0.50493  0.78619  0.00661  Biso   1.000  O
  O21      1.0000 0.75201  0.28283  0.26117  Biso   1.000  O
  O22      1.0000 0.74488  0.21403  0.00661  Biso   1.000  O
  O23      1.0000 0.75201  0.71739  0.98864  Biso   1.000  O
  O24      1.0000 0.74489  0.78619  0.24321  Biso   1.000  O
  Hf13     1.0000 0.62491  0.00011  0.62491  Biso   1.000  Hf
  Hf14     1.0000 0.62491  0.50011  0.86943  Biso   1.000  Hf
  Hf15     1.0000 0.86943  0.50011  0.62491  Biso   1.000  Hf
  Hf16     1.0000 0.87893  0.00117  0.87892  Biso   1.000  Hf
  O25      1.0000 0.49096  0.29238  0.49095  Biso   1.000  O
  O26      1.0000 0.50605  0.21119  0.74374  Biso   1.000  O
  O27      1.0000 0.49096  0.70783  0.75887  Biso   1.000  O
  O28      1.0000 0.50605  0.78903  0.50608  Biso   1.000  O
  O29      1.0000 0.75885  0.29238  0.75887  Biso   1.000  O
  O30      1.0000 0.74377  0.21119  0.50608  Biso   1.000  O
  O31      1.0000 0.75885  0.70784  0.49095  Biso   1.000  O
  O32      1.0000 0.74377  0.78903  0.74374  Biso   1.000  O
  Y1       1.0000 0.12491  0.50011  0.12491  Biso   1.000  Y
