data_image0
_cell_length_a       5.00688
_cell_length_b       10.3677
_cell_length_c       10.0596
_cell_angle_alpha    90.1589
_cell_angle_beta     90.3197
_cell_angle_gamma    90.0198

_symmetry_space_group_name_H-M    "P 1"
_symmetry_int_tables_number       1

loop_
  _symmetry_equiv_pos_as_xyz
  'x, y, z'

loop_
  _atom_site_label
  _atom_site_occupancy
  _atom_site_fract_x
  _atom_site_fract_y
  _atom_site_fract_z
  _atom_site_thermal_displace_type
  _atom_site_B_iso_or_equiv
  _atom_site_type_symbol
  Y1       1.0000 0.26301  0.01219  0.12220  Biso   1.000  Y
  Hf1      1.0000 0.26700  0.23323  0.37558  Biso   1.000  Hf
  Hf2      1.0000 0.72580  0.26575  0.12733  Biso   1.000  Hf
  Hf3      1.0000 0.72888  0.48351  0.37634  Biso   1.000  Hf
  O1       1.0000 0.06419  0.19146  0.19898  Biso   1.000  O
  O2       1.0000 0.06834  0.06571  0.44409  Biso   1.000  O
  O3       1.0000 0.92552  0.43607  0.19558  Biso   1.000  O
  O4       1.0000 0.92691  0.31731  0.44558  Biso   1.000  O
  O5       1.0000 0.54895  0.12366  0.25449  Biso   1.000  O
  O6       1.0000 0.53617  0.13257  0.50107  Biso   1.000  O
  O7       1.0000 0.45862  0.38318  0.49949  Biso   1.000  O
  O8       1.0000 0.45491  0.36896  0.24971  Biso   1.000  O
  Hf4      1.0000 0.26682  0.01684  0.62544  Biso   1.000  Hf
  Hf5      1.0000 0.27130  0.23420  0.87338  Biso   1.000  Hf
  Hf6      1.0000 0.73201  0.26638  0.62444  Biso   1.000  Hf
  Hf7      1.0000 0.73277  0.48281  0.87660  Biso   1.000  Hf
  O9       1.0000 0.07598  0.18693  0.68895  Biso   1.000  O
  O10      1.0000 0.07102  0.07058  0.92772  Biso   1.000  O
  O11      1.0000 0.93132  0.43384  0.69657  Biso   1.000  O
  O12      1.0000 0.93521  0.31893  0.94661  Biso   1.000  O
  O13      1.0000 0.54307  0.11783  0.74732  Biso   1.000  O
  O14      1.0000 0.55169  0.13543  0.99435  Biso   1.000  O
  O15      1.0000 0.45987  0.38292  0.99898  Biso   1.000  O
  O16      1.0000 0.46300  0.36828  0.74866  Biso   1.000  O
  Hf8      1.0000 0.26733  0.51548  0.12556  Biso   1.000  Hf
  Hf9      1.0000 0.26596  0.73287  0.37789  Biso   1.000  Hf
  Hf10     1.0000 0.72873  0.76553  0.12780  Biso   1.000  Hf
  Hf11     1.0000 0.72525  0.98300  0.37577  Biso   1.000  Hf
  O17      1.0000 0.06929  0.68198  0.19697  Biso   1.000  O
  O18      1.0000 0.06806  0.56530  0.44705  Biso   1.000  O
  O19      1.0000 0.90459  0.93088  0.20062  Biso   1.000  O
  O20      1.0000 0.92879  0.81543  0.44781  Biso   1.000  O
  O21      1.0000 0.53770  0.61504  0.24969  Biso   1.000  O
  O22      1.0000 0.53916  0.63214  0.49985  Biso   1.000  O
  O23      1.0000 0.45695  0.88226  0.50073  Biso   1.000  O
  O24      1.0000 0.45848  0.85922  0.25433  Biso   1.000  O
  Hf12     1.0000 0.26784  0.51610  0.62643  Biso   1.000  Hf
  Hf13     1.0000 0.27520  0.73327  0.87585  Biso   1.000  Hf
  Hf14     1.0000 0.73251  0.76621  0.62545  Biso   1.000  Hf
  Hf15     1.0000 0.73188  0.98334  0.87349  Biso   1.000  Hf
  O25      1.0000 0.07196  0.68364  0.69551  Biso   1.000  O
  O26      1.0000 0.07062  0.56811  0.94540  Biso   1.000  O
  O27      1.0000 0.92767  0.93344  0.69335  Biso   1.000  O
  O28      1.0000 0.94849  0.82081  0.95079  Biso   1.000  O
  O29      1.0000 0.54317  0.61721  0.74940  Biso   1.000  O
  O30      1.0000 0.54267  0.62939  0.99960  Biso   1.000  O
  O31      1.0000 0.47847  0.87448  0.99424  Biso   1.000  O
  O32      1.0000 0.45948  0.86738  0.74771  Biso   1.000  O
