data_image0
_cell_length_a       10.0136
_cell_length_b       5.216
_cell_length_c       10.0779
_cell_angle_alpha    90.0843
_cell_angle_beta     88.8743
_cell_angle_gamma    90.0739

_symmetry_space_group_name_H-M    "P 1"
_symmetry_int_tables_number       1

loop_
  _symmetry_equiv_pos_as_xyz
  'x, y, z'

loop_
  _atom_site_label
  _atom_site_occupancy
  _atom_site_fract_x
  _atom_site_fract_y
  _atom_site_fract_z
  _atom_site_thermal_displace_type
  _atom_site_B_iso_or_equiv
  _atom_site_type_symbol
  Hf1      1.0000 0.12072  0.89614  0.11740  Biso   1.000  Hf
  Hf2      1.0000 0.11659  0.53038  0.35691  Biso   1.000  Hf
  Hf3      1.0000 0.39784  0.48374  0.11286  Biso   1.000  Hf
  Hf4      1.0000 0.38677  0.04055  0.36152  Biso   1.000  Hf
  O1       1.0000 0.01756  0.29006  0.97002  Biso   1.000  O
  O2       1.0000 0.01536  0.20702  0.22595  Biso   1.000  O
  O3       1.0000 0.96498  0.73240  0.24017  Biso   1.000  O
  O4       1.0000 0.98463  0.77014  0.97918  Biso   1.000  O
  O5       1.0000 0.29845  0.37464  0.30174  Biso   1.000  O
  O6       1.0000 0.27815  0.15341  0.05255  Biso   1.000  O
  O7       1.0000 0.25508  0.69303  0.98477  Biso   1.000  O
  O8       1.0000 0.21415  0.87162  0.29823  Biso   1.000  O
  Hf5      1.0000 0.11240  0.97153  0.59609  Biso   1.000  Hf
  Hf6      1.0000 0.11241  0.54827  0.83445  Biso   1.000  Hf
  Hf7      1.0000 0.38017  0.46304  0.61061  Biso   1.000  Hf
  Hf8      1.0000 0.36925  0.01572  0.86596  Biso   1.000  Hf
  O9       1.0000 0.01482  0.26360  0.47589  Biso   1.000  O
  O10      1.0000 0.01667  0.24118  0.72360  Biso   1.000  O
  O11      1.0000 0.97231  0.74465  0.72603  Biso   1.000  O
  O12      1.0000 0.97786  0.76260  0.48006  Biso   1.000  O
  O13      1.0000 0.27926  0.35374  0.78572  Biso   1.000  O
  O14      1.0000 0.28389  0.13511  0.53581  Biso   1.000  O
  O15      1.0000 0.20986  0.62596  0.54094  Biso   1.000  O
  O16      1.0000 0.20982  0.87789  0.76822  Biso   1.000  O
  Hf9      1.0000 0.62032  0.97709  0.10835  Biso   1.000  Hf
  Hf10     1.0000 0.61480  0.53828  0.36119  Biso   1.000  Hf
  Hf11     1.0000 0.87764  0.47083  0.10765  Biso   1.000  Hf
  Hf12     1.0000 0.87872  0.02944  0.35737  Biso   1.000  Hf
  O17      1.0000 0.51673  0.27330  0.98557  Biso   1.000  O
  O18      1.0000 0.52517  0.24684  0.23354  Biso   1.000  O
  O19      1.0000 0.48094  0.74695  0.23666  Biso   1.000  O
  O20      1.0000 0.49247  0.78201  0.98744  Biso   1.000  O
  O21      1.0000 0.78221  0.36480  0.28769  Biso   1.000  O
  O22      1.0000 0.78728  0.13643  0.03420  Biso   1.000  O
  O23      1.0000 0.71595  0.63513  0.03713  Biso   1.000  O
  O24      1.0000 0.71030  0.86885  0.28787  Biso   1.000  O
  Hf13     1.0000 0.61180  0.96917  0.61284  Biso   1.000  Hf
  Hf14     1.0000 0.61398  0.53349  0.85694  Biso   1.000  Hf
  Hf15     1.0000 0.87933  0.46712  0.60252  Biso   1.000  Hf
  Hf16     1.0000 0.88339  0.03878  0.85348  Biso   1.000  Hf
  O25      1.0000 0.52050  0.26561  0.48680  Biso   1.000  O
  O26      1.0000 0.51350  0.22613  0.73820  Biso   1.000  O
  O27      1.0000 0.47548  0.72675  0.73952  Biso   1.000  O
  O28      1.0000 0.47808  0.76770  0.48845  Biso   1.000  O
  O29      1.0000 0.78251  0.36669  0.78485  Biso   1.000  O
  O30      1.0000 0.78111  0.13324  0.53899  Biso   1.000  O
  O31      1.0000 0.71190  0.63528  0.53777  Biso   1.000  O
  O32      1.0000 0.71387  0.86798  0.78853  Biso   1.000  O
  Zn1      1.0000 0.14546  0.40343  0.10369  Biso   1.000  Zn
