data_image0
_cell_length_a       5.03128
_cell_length_b       10.203
_cell_length_c       10.0159
_cell_angle_alpha    92.0845
_cell_angle_beta     89.4539
_cell_angle_gamma    89.2486

_symmetry_space_group_name_H-M    "P 1"
_symmetry_int_tables_number       1

loop_
  _symmetry_equiv_pos_as_xyz
  'x, y, z'

loop_
  _atom_site_label
  _atom_site_occupancy
  _atom_site_fract_x
  _atom_site_fract_y
  _atom_site_fract_z
  _atom_site_thermal_displace_type
  _atom_site_B_iso_or_equiv
  _atom_site_type_symbol
  Zn1      1.0000 0.27229  0.97395  0.12599  Biso   1.000  Zn
  Hf1      1.0000 0.27011  0.01729  0.62506  Biso   1.000  Hf
  Hf2      1.0000 0.26416  0.51338  0.10718  Biso   1.000  Hf
  Hf3      1.0000 0.27881  0.50627  0.61543  Biso   1.000  Hf
  Hf4      1.0000 0.27277  0.23982  0.37193  Biso   1.000  Hf
  Hf5      1.0000 0.21781  0.23581  0.88957  Biso   1.000  Hf
  Hf6      1.0000 0.27965  0.76218  0.38800  Biso   1.000  Hf
  Hf7      1.0000 0.23735  0.76204  0.86852  Biso   1.000  Hf
  Hf8      1.0000 0.71184  0.25893  0.11555  Biso   1.000  Hf
  Hf9      1.0000 0.76242  0.25595  0.62968  Biso   1.000  Hf
  Hf10     1.0000 0.75327  0.74467  0.12577  Biso   1.000  Hf
  Hf11     1.0000 0.77656  0.74063  0.61358  Biso   1.000  Hf
  Hf12     1.0000 0.78397  0.00006  0.37715  Biso   1.000  Hf
  Hf13     1.0000 0.73215  0.00142  0.88862  Biso   1.000  Hf
  Hf14     1.0000 0.77752  0.47895  0.37483  Biso   1.000  Hf
  Hf15     1.0000 0.78321  0.49642  0.87354  Biso   1.000  Hf
  O1       1.0000 0.94080  0.14489  0.99503  Biso   1.000  O
  O2       1.0000 0.02028  0.14487  0.50028  Biso   1.000  O
  O3       1.0000 0.00811  0.64445  0.98943  Biso   1.000  O
  O4       1.0000 0.02241  0.63588  0.48162  Biso   1.000  O
  O5       1.0000 0.09105  0.07280  0.26065  Biso   1.000  O
  O6       1.0000 0.98447  0.10209  0.75094  Biso   1.000  O
  O7       1.0000 0.92713  0.57355  0.21814  Biso   1.000  O
  O8       1.0000 0.98761  0.60138  0.73498  Biso   1.000  O
  O9       1.0000 0.97943  0.32220  0.25990  Biso   1.000  O
  O10      1.0000 0.04106  0.35416  0.75395  Biso   1.000  O
  O11      1.0000 0.95797  0.82571  0.27965  Biso   1.000  O
  O12      1.0000 0.91131  0.84443  0.77554  Biso   1.000  O
  O13      1.0000 0.98934  0.38996  0.00880  Biso   1.000  O
  O14      1.0000 0.02382  0.39057  0.50331  Biso   1.000  O
  O15      1.0000 0.97835  0.89523  0.02068  Biso   1.000  O
  O16      1.0000 0.02718  0.89156  0.51950  Biso   1.000  O
  O17      1.0000 0.59232  0.15303  0.27163  Biso   1.000  O
  O18      1.0000 0.49940  0.16515  0.75689  Biso   1.000  O
  O19      1.0000 0.42654  0.66412  0.22343  Biso   1.000  O
  O20      1.0000 0.45835  0.67454  0.71968  Biso   1.000  O
  O21      1.0000 0.45306  0.11352  0.01678  Biso   1.000  O
  O22      1.0000 0.52701  0.11038  0.50944  Biso   1.000  O
  O23      1.0000 0.50683  0.61224  0.97653  Biso   1.000  O
  O24      1.0000 0.52202  0.60817  0.47938  Biso   1.000  O
  O25      1.0000 0.48871  0.36553  0.98207  Biso   1.000  O
  O26      1.0000 0.52400  0.35405  0.48999  Biso   1.000  O
  O27      1.0000 0.48805  0.85634  0.01022  Biso   1.000  O
  O28      1.0000 0.52834  0.86473  0.51326  Biso   1.000  O
  O29      1.0000 0.47473  0.40117  0.24111  Biso   1.000  O
  O30      1.0000 0.55927  0.42113  0.72564  Biso   1.000  O
  O31      1.0000 0.49134  0.90447  0.26532  Biso   1.000  O
  O32      1.0000 0.41025  0.92466  0.78184  Biso   1.000  O
