data_image0
_cell_length_a       5.09462
_cell_length_b       10.4577
_cell_length_c       10.3424
_cell_angle_alpha    90
_cell_angle_beta     90
_cell_angle_gamma    90

_symmetry_space_group_name_H-M    "P 1"
_symmetry_int_tables_number       1

loop_
  _symmetry_equiv_pos_as_xyz
  'x, y, z'

loop_
  _atom_site_label
  _atom_site_occupancy
  _atom_site_fract_x
  _atom_site_fract_y
  _atom_site_fract_z
  _atom_site_thermal_displace_type
  _atom_site_B_iso_or_equiv
  _atom_site_type_symbol
  La1      1.0000 0.25156  0.99895  0.10480  Biso   1.000  La
  Hf1      1.0000 0.24948  0.99541  0.60607  Biso   1.000  Hf
  Hf2      1.0000 0.25089  0.49721  0.15677  Biso   1.000  Hf
  Hf3      1.0000 0.25014  0.49547  0.67180  Biso   1.000  Hf
  Hf4      1.0000 0.29486  0.23214  0.36896  Biso   1.000  Hf
  Hf5      1.0000 0.31394  0.23262  0.86438  Biso   1.000  Hf
  Hf6      1.0000 0.20159  0.76269  0.36725  Biso   1.000  Hf
  Hf7      1.0000 0.18459  0.75849  0.86439  Biso   1.000  Hf
  Hf8      1.0000 0.79466  0.26349  0.13380  Biso   1.000  Hf
  Hf9      1.0000 0.81401  0.25892  0.63873  Biso   1.000  Hf
  Hf10     1.0000 0.70149  0.73301  0.13622  Biso   1.000  Hf
  Hf11     1.0000 0.68472  0.73304  0.63885  Biso   1.000  Hf
  Hf12     1.0000 0.75097  0.99845  0.34635  Biso   1.000  Hf
  Hf13     1.0000 0.75028  0.99616  0.83147  Biso   1.000  Hf
  La2      1.0000 0.75130  0.49673  0.39835  Biso   1.000  La
  Hf14     1.0000 0.74928  0.49621  0.89721  Biso   1.000  Hf
  Hf15     1.0000 0.04395  0.18360  0.00244  Biso   1.000  Hf
  Hf16     1.0000 0.03210  0.15686  0.50932  Biso   1.000  Hf
  Hf17     1.0000 0.95968  0.65793  0.99160  Biso   1.000  Hf
  Hf18     1.0000 0.95655  0.68071  0.50008  Biso   1.000  Hf
  Hf19     1.0000 0.00876  0.11642  0.25665  Biso   1.000  Hf
  Hf20     1.0000 0.03205  0.10675  0.74806  Biso   1.000  Hf
  Hf21     1.0000 0.99084  0.61659  0.24481  Biso   1.000  Hf
  Hf22     1.0000 0.96733  0.60613  0.75410  Biso   1.000  Hf
  Hf23     1.0000 0.03123  0.35306  0.26910  Biso   1.000  Hf
  Hf24     1.0000 0.02369  0.35594  0.78884  Biso   1.000  Hf
  Hf25     1.0000 0.96793  0.85458  0.23272  Biso   1.000  Hf
  Hf26     1.0000 0.97553  0.85583  0.71440  Biso   1.000  Hf
  Hf27     1.0000 0.98318  0.42442  0.03650  Biso   1.000  Hf
  Hf28     1.0000 0.03551  0.40007  0.54434  Biso   1.000  Hf
  Hf29     1.0000 0.96886  0.90171  0.95734  Biso   1.000  Hf
  Hf30     1.0000 0.01010  0.92052  0.46760  Biso   1.000  Hf
  Hf31     1.0000 0.53190  0.14250  0.23394  Biso   1.000  Hf
  Hf32     1.0000 0.52383  0.13555  0.71435  Biso   1.000  Hf
  Hf33     1.0000 0.46769  0.64107  0.27054  Biso   1.000  Hf
  Hf34     1.0000 0.47532  0.63572  0.78881  Biso   1.000  Hf
  Hf35     1.0000 0.53616  0.09175  0.95900  Biso   1.000  Hf
  Hf36     1.0000 0.48358  0.07136  0.46658  Biso   1.000  Hf
  Hf37     1.0000 0.50978  0.57548  0.03561  Biso   1.000  Hf
  Hf38     1.0000 0.46868  0.58989  0.54580  Biso   1.000  Hf
  Hf39     1.0000 0.53129  0.33488  0.99382  Biso   1.000  Hf
  Hf40     1.0000 0.54395  0.31207  0.50057  Biso   1.000  Hf
  Hf41     1.0000 0.45656  0.81514  0.00321  Biso   1.000  Hf
  Hf42     1.0000 0.45990  0.83358  0.51164  Biso   1.000  Hf
  Hf43     1.0000 0.50807  0.37917  0.24647  Biso   1.000  Hf
  Hf44     1.0000 0.53195  0.38478  0.75495  Biso   1.000  Hf
  Hf45     1.0000 0.49104  0.87904  0.25839  Biso   1.000  Hf
  Hf46     1.0000 0.46753  0.88547  0.74921  Biso   1.000  Hf
