data_image0
_cell_length_a       10.1597
_cell_length_b       10.4577
_cell_length_c       5.09434
_cell_angle_alpha    90
_cell_angle_beta     90
_cell_angle_gamma    90

_symmetry_space_group_name_H-M    "P 1"
_symmetry_int_tables_number       1

loop_
  _symmetry_equiv_pos_as_xyz
  'x, y, z'

loop_
  _atom_site_label
  _atom_site_occupancy
  _atom_site_fract_x
  _atom_site_fract_y
  _atom_site_fract_z
  _atom_site_thermal_displace_type
  _atom_site_B_iso_or_equiv
  _atom_site_type_symbol
  La1      1.0000 0.11778  0.00190  0.24017  Biso   1.000  La
  Hf1      1.0000 0.13069  0.51461  0.25075  Biso   1.000  Hf
  Hf2      1.0000 0.63138  0.01458  0.25073  Biso   1.000  Hf
  La2      1.0000 0.61709  0.50186  0.24020  Biso   1.000  La
  Hf3      1.0000 0.12823  0.23003  0.74782  Biso   1.000  Hf
  Hf4      1.0000 0.12996  0.72712  0.75204  Biso   1.000  Hf
  Hf5      1.0000 0.63070  0.22709  0.75204  Biso   1.000  Hf
  Hf6      1.0000 0.62754  0.72998  0.74784  Biso   1.000  Hf
  Hf7      1.0000 0.35855  0.25853  0.25493  Biso   1.000  Hf
  Hf8      1.0000 0.36350  0.76589  0.24570  Biso   1.000  Hf
  Hf9      1.0000 0.86419  0.26589  0.24572  Biso   1.000  Hf
  Hf10     1.0000 0.85783  0.75847  0.25501  Biso   1.000  Hf
  Hf11     1.0000 0.34980  0.47491  0.75542  Biso   1.000  Hf
  Hf12     1.0000 0.36189  0.98038  0.74663  Biso   1.000  Hf
  Hf13     1.0000 0.86262  0.48034  0.74669  Biso   1.000  Hf
  Hf14     1.0000 0.84912  0.97488  0.75539  Biso   1.000  Hf
  Hf15     1.0000 0.02860  0.19655  0.39373  Biso   1.000  Hf
  Hf16     1.0000 0.03362  0.68334  0.39090  Biso   1.000  Hf
  Hf17     1.0000 0.53434  0.18335  0.39093  Biso   1.000  Hf
  Hf18     1.0000 0.52790  0.69651  0.39376  Biso   1.000  Hf
  Hf19     1.0000 0.01844  0.06983  0.83568  Biso   1.000  Hf
  Hf20     1.0000 0.02855  0.56417  0.89091  Biso   1.000  Hf
  Hf21     1.0000 0.52925  0.06414  0.89088  Biso   1.000  Hf
  Hf22     1.0000 0.51770  0.56984  0.83576  Biso   1.000  Hf
  Hf23     1.0000 0.43670  0.41819  0.41950  Biso   1.000  Hf
  Hf24     1.0000 0.45862  0.93898  0.38864  Biso   1.000  Hf
  Hf25     1.0000 0.95927  0.43898  0.38869  Biso   1.000  Hf
  Hf26     1.0000 0.93603  0.91816  0.41948  Biso   1.000  Hf
  Hf27     1.0000 0.46933  0.31952  0.92033  Biso   1.000  Hf
  Hf28     1.0000 0.46749  0.81911  0.90385  Biso   1.000  Hf
  Hf29     1.0000 0.96816  0.31910  0.90384  Biso   1.000  Hf
  Hf30     1.0000 0.96863  0.81950  0.92038  Biso   1.000  Hf
  Hf31     1.0000 0.27593  0.12263  0.50697  Biso   1.000  Hf
  Hf32     1.0000 0.26171  0.60962  0.50275  Biso   1.000  Hf
  Hf33     1.0000 0.76240  0.10958  0.50281  Biso   1.000  Hf
  Hf34     1.0000 0.77516  0.62257  0.50704  Biso   1.000  Hf
  Hf35     1.0000 0.26476  0.12689  0.98397  Biso   1.000  Hf
  Hf36     1.0000 0.26885  0.63011  0.00540  Biso   1.000  Hf
  Hf37     1.0000 0.76961  0.13009  0.00541  Biso   1.000  Hf
  Hf38     1.0000 0.76402  0.62686  0.98404  Biso   1.000  Hf
  Hf39     1.0000 0.23216  0.37969  0.00657  Biso   1.000  Hf
  Hf40     1.0000 0.23542  0.86738  0.97759  Biso   1.000  Hf
  Hf41     1.0000 0.73613  0.36736  0.97760  Biso   1.000  Hf
  Hf42     1.0000 0.73147  0.87968  0.00655  Biso   1.000  Hf
  Hf43     1.0000 0.21219  0.36552  0.50086  Biso   1.000  Hf
  Hf44     1.0000 0.23803  0.85285  0.50605  Biso   1.000  Hf
  Hf45     1.0000 0.73875  0.35282  0.50609  Biso   1.000  Hf
  Hf46     1.0000 0.71154  0.86550  0.50081  Biso   1.000  Hf
