data_image0
_cell_length_a       10.2158
_cell_length_b       10.3678
_cell_length_c       5.2583
_cell_angle_alpha    90
_cell_angle_beta     80
_cell_angle_gamma    90

_symmetry_space_group_name_H-M    "P 1"
_symmetry_int_tables_number       1

loop_
  _symmetry_equiv_pos_as_xyz
  'x, y, z'

loop_
  _atom_site_label
  _atom_site_occupancy
  _atom_site_fract_x
  _atom_site_fract_y
  _atom_site_fract_z
  _atom_site_thermal_displace_type
  _atom_site_B_iso_or_equiv
  _atom_site_type_symbol
  La1      1.0000 0.10971  0.00797  0.26013  Biso   1.000  La
  Hf1      1.0000 0.13897  0.52543  0.25762  Biso   1.000  Hf
  Hf2      1.0000 0.63238  0.01934  0.30702  Biso   1.000  Hf
  Hf3      1.0000 0.62711  0.51528  0.30389  Biso   1.000  Hf
  Hf4      1.0000 0.12952  0.22883  0.77629  Biso   1.000  Hf
  Hf5      1.0000 0.12333  0.73402  0.77634  Biso   1.000  Hf
  Hf6      1.0000 0.62146  0.23000  0.80669  Biso   1.000  Hf
  Hf7      1.0000 0.61507  0.72409  0.80191  Biso   1.000  Hf
  Hf8      1.0000 0.35621  0.26492  0.20025  Biso   1.000  Hf
  Hf9      1.0000 0.36358  0.77116  0.20532  Biso   1.000  Hf
  Hf10     1.0000 0.84744  0.26646  0.23108  Biso   1.000  Hf
  Hf11     1.0000 0.85692  0.75975  0.22887  Biso   1.000  Hf
  Hf12     1.0000 0.34515  0.47541  0.70079  Biso   1.000  Hf
  Hf13     1.0000 0.35163  0.97995  0.70304  Biso   1.000  Hf
  La2      1.0000 0.86785  0.48770  0.74639  Biso   1.000  La
  Hf14     1.0000 0.84002  0.96951  0.75006  Biso   1.000  Hf
  Hf15     1.0000 0.04072  0.20336  0.18093  Biso   1.000  Hf
  Hf16     1.0000 0.01656  0.63695  0.06473  Biso   1.000  Hf
  Hf17     1.0000 0.52891  0.16310  0.15750  Biso   1.000  Hf
  Hf18     1.0000 0.52382  0.65714  0.14987  Biso   1.000  Hf
  Hf19     1.0000 0.01386  0.07634  0.71086  Biso   1.000  Hf
  Hf20     1.0000 0.02791  0.62696  0.55323  Biso   1.000  Hf
  Hf21     1.0000 0.52384  0.08465  0.65763  Biso   1.000  Hf
  Hf22     1.0000 0.51441  0.58169  0.65737  Biso   1.000  Hf
  Hf23     1.0000 0.45313  0.41054  0.34967  Biso   1.000  Hf
  Hf24     1.0000 0.46431  0.91351  0.34984  Biso   1.000  Hf
  Hf25     1.0000 0.96366  0.41844  0.29747  Biso   1.000  Hf
  Hf26     1.0000 0.94932  0.87105  0.44838  Biso   1.000  Hf
  Hf27     1.0000 0.44859  0.33185  0.84964  Biso   1.000  Hf
  Hf28     1.0000 0.45466  0.83807  0.85770  Biso   1.000  Hf
  Hf29     1.0000 0.93660  0.29227  0.82728  Biso   1.000  Hf
  Hf30     1.0000 0.96256  0.85605  0.93711  Biso   1.000  Hf
  Hf31     1.0000 0.26741  0.13292  0.47915  Biso   1.000  Hf
  Hf32     1.0000 0.27384  0.62351  0.46069  Biso   1.000  Hf
  Hf33     1.0000 0.77388  0.11976  0.49907  Biso   1.000  Hf
  Hf34     1.0000 0.75251  0.63054  0.49425  Biso   1.000  Hf
  Hf35     1.0000 0.25997  0.12225  0.96103  Biso   1.000  Hf
  Hf36     1.0000 0.24726  0.61976  0.96683  Biso   1.000  Hf
  Hf37     1.0000 0.77141  0.11866  0.00572  Biso   1.000  Hf
  Hf38     1.0000 0.75762  0.62815  0.01001  Biso   1.000  Hf
  Hf39     1.0000 0.20602  0.37628  0.00178  Biso   1.000  Hf
  Hf40     1.0000 0.22079  0.86663  0.99653  Biso   1.000  Hf
  Hf41     1.0000 0.71734  0.37294  0.04587  Biso   1.000  Hf
  Hf42     1.0000 0.73215  0.87495  0.04185  Biso   1.000  Hf
  Hf43     1.0000 0.20288  0.37584  0.50891  Biso   1.000  Hf
  Hf44     1.0000 0.22607  0.86485  0.51218  Biso   1.000  Hf
  Hf45     1.0000 0.70977  0.36253  0.52793  Biso   1.000  Hf
  Hf46     1.0000 0.70415  0.87192  0.54896  Biso   1.000  Hf
