data_image0
_cell_length_a       10.2262
_cell_length_b       5.15377
_cell_length_c       10.4844
_cell_angle_alpha    90
_cell_angle_beta     90
_cell_angle_gamma    90

_symmetry_space_group_name_H-M    "P 1"
_symmetry_int_tables_number       1

loop_
  _symmetry_equiv_pos_as_xyz
  'x, y, z'

loop_
  _atom_site_label
  _atom_site_occupancy
  _atom_site_fract_x
  _atom_site_fract_y
  _atom_site_fract_z
  _atom_site_thermal_displace_type
  _atom_site_B_iso_or_equiv
  _atom_site_type_symbol
  La1      1.0000 0.12355  0.00691  0.15484  Biso   1.000  La
  Hf1      1.0000 0.12126  0.04094  0.66981  Biso   1.000  Hf
  Hf2      1.0000 0.12705  0.45301  0.41875  Biso   1.000  Hf
  Hf3      1.0000 0.12867  0.46897  0.91240  Biso   1.000  Hf
  Hf4      1.0000 0.35467  0.52364  0.16900  Biso   1.000  Hf
  Hf5      1.0000 0.34608  0.53704  0.66756  Biso   1.000  Hf
  Hf6      1.0000 0.34614  0.95552  0.42080  Biso   1.000  Hf
  Hf7      1.0000 0.34885  0.95786  0.91379  Biso   1.000  Hf
  Hf8      1.0000 0.63918  0.02358  0.08095  Biso   1.000  Hf
  Hf9      1.0000 0.62294  0.03693  0.58212  Biso   1.000  Hf
  Hf10     1.0000 0.62014  0.45794  0.33584  Biso   1.000  Hf
  Hf11     1.0000 0.62286  0.45527  0.82882  Biso   1.000  Hf
  La2      1.0000 0.87022  0.50712  0.09507  Biso   1.000  La
  Hf12     1.0000 0.84780  0.54098  0.57979  Biso   1.000  Hf
  Hf13     1.0000 0.84031  0.96920  0.33725  Biso   1.000  Hf
  Hf14     1.0000 0.84199  0.95295  0.83088  Biso   1.000  Hf
  Hf15     1.0000 0.08476  0.44585  0.10411  Biso   1.000  Hf
  Hf16     1.0000 0.02107  0.34629  0.58972  Biso   1.000  Hf
  Hf17     1.0000 0.01238  0.16956  0.34530  Biso   1.000  Hf
  Hf18     1.0000 0.01804  0.15936  0.84543  Biso   1.000  Hf
  Hf19     1.0000 0.47468  0.81013  0.07951  Biso   1.000  Hf
  Hf20     1.0000 0.45439  0.81647  0.57956  Biso   1.000  Hf
  Hf21     1.0000 0.45809  0.68026  0.32825  Biso   1.000  Hf
  Hf22     1.0000 0.45289  0.67149  0.82551  Biso   1.000  Hf
  Hf23     1.0000 0.26973  0.24414  0.29992  Biso   1.000  Hf
  Hf24     1.0000 0.25752  0.24800  0.78830  Biso   1.000  Hf
  Hf25     1.0000 0.28831  0.24627  0.03194  Biso   1.000  Hf
  Hf26     1.0000 0.25802  0.24767  0.54418  Biso   1.000  Hf
  Hf27     1.0000 0.22249  0.72656  0.29996  Biso   1.000  Hf
  Hf28     1.0000 0.21074  0.74852  0.78613  Biso   1.000  Hf
  Hf29     1.0000 0.25314  0.73732  0.02559  Biso   1.000  Hf
  Hf30     1.0000 0.20866  0.75370  0.54336  Biso   1.000  Hf
  Hf31     1.0000 0.51912  0.31007  0.17046  Biso   1.000  Hf
  Hf32     1.0000 0.51462  0.31646  0.67008  Biso   1.000  Hf
  Hf33     1.0000 0.51614  0.17154  0.42412  Biso   1.000  Hf
  Hf34     1.0000 0.51095  0.18011  0.92139  Biso   1.000  Hf
  Hf35     1.0000 0.90898  0.94604  0.14576  Biso   1.000  Hf
  Hf36     1.0000 0.94797  0.84628  0.65989  Biso   1.000  Hf
  Hf37     1.0000 0.95097  0.65939  0.40412  Biso   1.000  Hf
  Hf38     1.0000 0.95666  0.66962  0.90443  Biso   1.000  Hf
  Hf39     1.0000 0.74654  0.22632  0.94967  Biso   1.000  Hf
  Hf40     1.0000 0.75823  0.24854  0.46353  Biso   1.000  Hf
  Hf41     1.0000 0.74071  0.23723  0.22432  Biso   1.000  Hf
  Hf42     1.0000 0.76034  0.25351  0.70626  Biso   1.000  Hf
  Hf43     1.0000 0.69932  0.74391  0.94973  Biso   1.000  Hf
  Hf44     1.0000 0.71156  0.74802  0.46135  Biso   1.000  Hf
  Hf45     1.0000 0.70544  0.74620  0.21797  Biso   1.000  Hf
  Hf46     1.0000 0.71097  0.74751  0.70544  Biso   1.000  Hf
