data_image0
_cell_length_a       10.1262
_cell_length_b       5.21514
_cell_length_c       10.2246
_cell_angle_alpha    90
_cell_angle_beta     90
_cell_angle_gamma    90

_symmetry_space_group_name_H-M    "P 1"
_symmetry_int_tables_number       1

loop_
  _symmetry_equiv_pos_as_xyz
  'x, y, z'

loop_
  _atom_site_label
  _atom_site_occupancy
  _atom_site_fract_x
  _atom_site_fract_y
  _atom_site_fract_z
  _atom_site_thermal_displace_type
  _atom_site_B_iso_or_equiv
  _atom_site_type_symbol
  La1      1.0000 0.12002  0.99331  0.11811  Biso   1.000  La
  Hf1      1.0000 0.13401  0.02382  0.62328  Biso   1.000  Hf
  Hf2      1.0000 0.64175  0.02444  0.12793  Biso   1.000  Hf
  Hf3      1.0000 0.63132  0.02495  0.62599  Biso   1.000  Hf
  Hf4      1.0000 0.13711  0.46009  0.37685  Biso   1.000  Hf
  Hf5      1.0000 0.13256  0.45754  0.86650  Biso   1.000  Hf
  Hf6      1.0000 0.63551  0.46015  0.38837  Biso   1.000  Hf
  Hf7      1.0000 0.63759  0.45119  0.87236  Biso   1.000  Hf
  La2      1.0000 0.37974  0.49328  0.11806  Biso   1.000  La
  Hf8      1.0000 0.36580  0.52384  0.62329  Biso   1.000  Hf
  Hf9      1.0000 0.85815  0.52439  0.12793  Biso   1.000  Hf
  Hf10     1.0000 0.86853  0.52497  0.62600  Biso   1.000  Hf
  Hf11     1.0000 0.36271  0.96007  0.37686  Biso   1.000  Hf
  Hf12     1.0000 0.36715  0.95751  0.86649  Biso   1.000  Hf
  Hf13     1.0000 0.86422  0.96020  0.38841  Biso   1.000  Hf
  Hf14     1.0000 0.86200  0.95115  0.87242  Biso   1.000  Hf
  Hf15     1.0000 0.02849  0.40570  0.20270  Biso   1.000  Hf
  Hf16     1.0000 0.03679  0.36192  0.68593  Biso   1.000  Hf
  Hf17     1.0000 0.57499  0.37487  0.20184  Biso   1.000  Hf
  Hf18     1.0000 0.53457  0.35534  0.69686  Biso   1.000  Hf
  Hf19     1.0000 0.03369  0.12210  0.44578  Biso   1.000  Hf
  Hf20     1.0000 0.01641  0.15777  0.92356  Biso   1.000  Hf
  Hf21     1.0000 0.53614  0.12817  0.44937  Biso   1.000  Hf
  Hf22     1.0000 0.52554  0.14915  0.95855  Biso   1.000  Hf
  Hf23     1.0000 0.47140  0.90577  0.20268  Biso   1.000  Hf
  Hf24     1.0000 0.46297  0.86195  0.68586  Biso   1.000  Hf
  Hf25     1.0000 0.92475  0.87474  0.20191  Biso   1.000  Hf
  Hf26     1.0000 0.96519  0.85532  0.69690  Biso   1.000  Hf
  Hf27     1.0000 0.46618  0.62218  0.44583  Biso   1.000  Hf
  Hf28     1.0000 0.48324  0.65773  0.92355  Biso   1.000  Hf
  Hf29     1.0000 0.96366  0.62804  0.44938  Biso   1.000  Hf
  Hf30     1.0000 0.97408  0.64913  0.95860  Biso   1.000  Hf
  Hf31     1.0000 0.26190  0.21567  0.26366  Biso   1.000  Hf
  Hf32     1.0000 0.27016  0.23052  0.74105  Biso   1.000  Hf
  Hf33     1.0000 0.77789  0.22787  0.25544  Biso   1.000  Hf
  Hf34     1.0000 0.76868  0.22250  0.74914  Biso   1.000  Hf
  Hf35     1.0000 0.26939  0.25564  0.50198  Biso   1.000  Hf
  Hf36     1.0000 0.25757  0.22833  0.97712  Biso   1.000  Hf
  Hf37     1.0000 0.77023  0.25584  0.50483  Biso   1.000  Hf
  Hf38     1.0000 0.76882  0.24650  0.99978  Biso   1.000  Hf
  Hf39     1.0000 0.23043  0.75568  0.50201  Biso   1.000  Hf
  Hf40     1.0000 0.24210  0.72839  0.97718  Biso   1.000  Hf
  Hf41     1.0000 0.72953  0.75576  0.50480  Biso   1.000  Hf
  Hf42     1.0000 0.73080  0.74647  0.99979  Biso   1.000  Hf
  Hf43     1.0000 0.23797  0.71569  0.26366  Biso   1.000  Hf
  Hf44     1.0000 0.22958  0.73053  0.74109  Biso   1.000  Hf
  Hf45     1.0000 0.72191  0.72781  0.25538  Biso   1.000  Hf
  Hf46     1.0000 0.73104  0.72247  0.74914  Biso   1.000  Hf
