data_image0
_cell_length_a       10.2517
_cell_length_b       10.4138
_cell_length_c       5.18711
_cell_angle_alpha    90
_cell_angle_beta     90
_cell_angle_gamma    90

_symmetry_space_group_name_H-M    "P 1"
_symmetry_int_tables_number       1

loop_
  _symmetry_equiv_pos_as_xyz
  'x, y, z'

loop_
  _atom_site_label
  _atom_site_occupancy
  _atom_site_fract_x
  _atom_site_fract_y
  _atom_site_fract_z
  _atom_site_thermal_displace_type
  _atom_site_B_iso_or_equiv
  _atom_site_type_symbol
  La1      1.0000 0.12241  0.00957  0.30265  Biso   1.000  La
  Hf1      1.0000 0.13840  0.52234  0.32986  Biso   1.000  Hf
  La2      1.0000 0.11587  0.24051  0.80247  Biso   1.000  La
  Hf2      1.0000 0.13178  0.72765  0.82980  Biso   1.000  Hf
  Hf3      1.0000 0.36300  0.26930  0.32890  Biso   1.000  Hf
  Hf4      1.0000 0.36045  0.76886  0.33320  Biso   1.000  Hf
  Hf5      1.0000 0.35372  0.48111  0.83300  Biso   1.000  Hf
  Hf6      1.0000 0.35653  0.98070  0.82881  Biso   1.000  Hf
  Hf7      1.0000 0.63766  0.01945  0.16975  Biso   1.000  Hf
  Hf8      1.0000 0.63615  0.52022  0.15743  Biso   1.000  Hf
  Hf9      1.0000 0.63108  0.23042  0.66964  Biso   1.000  Hf
  Hf10     1.0000 0.62954  0.72971  0.65727  Biso   1.000  Hf
  Hf11     1.0000 0.84961  0.27323  0.17819  Biso   1.000  Hf
  Hf12     1.0000 0.85916  0.76427  0.16012  Biso   1.000  Hf
  Hf13     1.0000 0.85254  0.48569  0.65985  Biso   1.000  Hf
  Hf14     1.0000 0.84328  0.97665  0.67811  Biso   1.000  Hf
  Hf15     1.0000 0.02857  0.20689  0.24973  Biso   1.000  Hf
  Hf16     1.0000 0.04007  0.68273  0.19005  Biso   1.000  Hf
  Hf17     1.0000 0.02180  0.04325  0.74956  Biso   1.000  Hf
  Hf18     1.0000 0.03339  0.56719  0.68988  Biso   1.000  Hf
  Hf19     1.0000 0.46980  0.41588  0.16330  Biso   1.000  Hf
  Hf20     1.0000 0.46915  0.91686  0.16880  Biso   1.000  Hf
  Hf21     1.0000 0.46236  0.33317  0.66862  Biso   1.000  Hf
  Hf22     1.0000 0.46322  0.83412  0.66318  Biso   1.000  Hf
  Hf23     1.0000 0.28795  0.12068  0.56548  Biso   1.000  Hf
  Hf24     1.0000 0.26763  0.62663  0.58112  Biso   1.000  Hf
  Hf25     1.0000 0.29458  0.12939  0.06568  Biso   1.000  Hf
  Hf26     1.0000 0.27433  0.62343  0.08128  Biso   1.000  Hf
  Hf27     1.0000 0.23619  0.38697  0.55676  Biso   1.000  Hf
  Hf28     1.0000 0.22517  0.86356  0.57967  Biso   1.000  Hf
  Hf29     1.0000 0.23174  0.38650  0.07974  Biso   1.000  Hf
  Hf30     1.0000 0.24297  0.86306  0.05698  Biso   1.000  Hf
  Hf31     1.0000 0.53709  0.17092  0.32514  Biso   1.000  Hf
  Hf32     1.0000 0.52795  0.66272  0.33172  Biso   1.000  Hf
  Hf33     1.0000 0.53037  0.07900  0.82505  Biso   1.000  Hf
  Hf34     1.0000 0.52127  0.58719  0.83155  Biso   1.000  Hf
  Hf35     1.0000 0.95553  0.43523  0.31420  Biso   1.000  Hf
  Hf36     1.0000 0.92289  0.92564  0.32014  Biso   1.000  Hf
  Hf37     1.0000 0.91585  0.32414  0.81979  Biso   1.000  Hf
  Hf38     1.0000 0.94888  0.81469  0.81428  Biso   1.000  Hf
  Hf39     1.0000 0.76204  0.12327  0.93597  Biso   1.000  Hf
  Hf40     1.0000 0.76202  0.62118  0.90973  Biso   1.000  Hf
  Hf41     1.0000 0.76870  0.12656  0.43602  Biso   1.000  Hf
  Hf42     1.0000 0.76870  0.62865  0.40988  Biso   1.000  Hf
  Hf43     1.0000 0.69816  0.37591  0.92326  Biso   1.000  Hf
  Hf44     1.0000 0.71307  0.87095  0.92122  Biso   1.000  Hf
  Hf45     1.0000 0.71963  0.37892  0.42146  Biso   1.000  Hf
  Hf46     1.0000 0.70507  0.87386  0.42333  Biso   1.000  Hf
