data_image0
_cell_length_a       10.2194
_cell_length_b       5.19501
_cell_length_c       10.4545
_cell_angle_alpha    90
_cell_angle_beta     90
_cell_angle_gamma    90

_symmetry_space_group_name_H-M    "P 1"
_symmetry_int_tables_number       1

loop_
  _symmetry_equiv_pos_as_xyz
  'x, y, z'

loop_
  _atom_site_label
  _atom_site_occupancy
  _atom_site_fract_x
  _atom_site_fract_y
  _atom_site_fract_z
  _atom_site_thermal_displace_type
  _atom_site_B_iso_or_equiv
  _atom_site_type_symbol
  La1      1.0000 0.12648  0.01264  0.15576  Biso   1.000  La
  Hf1      1.0000 0.14196  0.03736  0.66957  Biso   1.000  Hf
  Hf2      1.0000 0.13480  0.45104  0.41796  Biso   1.000  Hf
  Hf3      1.0000 0.14013  0.46473  0.91763  Biso   1.000  Hf
  Hf4      1.0000 0.36322  0.52870  0.16708  Biso   1.000  Hf
  Hf5      1.0000 0.35543  0.53227  0.67106  Biso   1.000  Hf
  Hf6      1.0000 0.34593  0.96156  0.41208  Biso   1.000  Hf
  Hf7      1.0000 0.36232  0.95888  0.91704  Biso   1.000  Hf
  Hf8      1.0000 0.64183  0.03748  0.08044  Biso   1.000  Hf
  La2      1.0000 0.62654  0.01259  0.59426  Biso   1.000  La
  Hf9      1.0000 0.63479  0.45103  0.33202  Biso   1.000  Hf
  Hf10     1.0000 0.64007  0.46477  0.83238  Biso   1.000  Hf
  Hf11     1.0000 0.85535  0.53237  0.07889  Biso   1.000  Hf
  Hf12     1.0000 0.86326  0.52858  0.58293  Biso   1.000  Hf
  Hf13     1.0000 0.84588  0.96157  0.33792  Biso   1.000  Hf
  Hf14     1.0000 0.86230  0.95893  0.83297  Biso   1.000  Hf
  Hf15     1.0000 0.03858  0.40422  0.09277  Biso   1.000  Hf
  Hf16     1.0000 0.03587  0.33831  0.59179  Biso   1.000  Hf
  Hf17     1.0000 0.02238  0.16115  0.34903  Biso   1.000  Hf
  Hf18     1.0000 0.04241  0.15228  0.84457  Biso   1.000  Hf
  Hf19     1.0000 0.46473  0.84046  0.08659  Biso   1.000  Hf
  Hf20     1.0000 0.41524  0.86676  0.59264  Biso   1.000  Hf
  Hf21     1.0000 0.46610  0.66811  0.33890  Biso   1.000  Hf
  Hf22     1.0000 0.46610  0.66437  0.83639  Biso   1.000  Hf
  Hf23     1.0000 0.27400  0.24795  0.29431  Biso   1.000  Hf
  Hf24     1.0000 0.27717  0.24584  0.79067  Biso   1.000  Hf
  Hf25     1.0000 0.28388  0.25191  0.03374  Biso   1.000  Hf
  Hf26     1.0000 0.27128  0.25930  0.54008  Biso   1.000  Hf
  Hf27     1.0000 0.22916  0.72277  0.29362  Biso   1.000  Hf
  Hf28     1.0000 0.22201  0.74672  0.79065  Biso   1.000  Hf
  Hf29     1.0000 0.24367  0.72395  0.03119  Biso   1.000  Hf
  Hf30     1.0000 0.20355  0.75618  0.53778  Biso   1.000  Hf
  Hf31     1.0000 0.53582  0.33843  0.15822  Biso   1.000  Hf
  Hf32     1.0000 0.53870  0.40420  0.65719  Biso   1.000  Hf
  Hf33     1.0000 0.52240  0.16113  0.40098  Biso   1.000  Hf
  Hf34     1.0000 0.54244  0.15219  0.90538  Biso   1.000  Hf
  Hf35     1.0000 0.91516  0.86675  0.15739  Biso   1.000  Hf
  Hf36     1.0000 0.96486  0.84030  0.66342  Biso   1.000  Hf
  Hf37     1.0000 0.96611  0.66811  0.41107  Biso   1.000  Hf
  Hf38     1.0000 0.96614  0.66440  0.91359  Biso   1.000  Hf
  Hf39     1.0000 0.77719  0.24580  0.95933  Biso   1.000  Hf
  Hf40     1.0000 0.77401  0.24794  0.45571  Biso   1.000  Hf
  Hf41     1.0000 0.77128  0.25945  0.20990  Biso   1.000  Hf
  Hf42     1.0000 0.78398  0.25177  0.71625  Biso   1.000  Hf
  Hf43     1.0000 0.72203  0.74671  0.95935  Biso   1.000  Hf
  Hf44     1.0000 0.72920  0.72267  0.45639  Biso   1.000  Hf
  Hf45     1.0000 0.70341  0.75647  0.21229  Biso   1.000  Hf
  Hf46     1.0000 0.74380  0.72387  0.71883  Biso   1.000  Hf
