data_image0
_cell_length_a       10.242
_cell_length_b       5.19025
_cell_length_c       10.445
_cell_angle_alpha    90
_cell_angle_beta     90
_cell_angle_gamma    90

_symmetry_space_group_name_H-M    "P 1"
_symmetry_int_tables_number       1

loop_
  _symmetry_equiv_pos_as_xyz
  'x, y, z'

loop_
  _atom_site_label
  _atom_site_occupancy
  _atom_site_fract_x
  _atom_site_fract_y
  _atom_site_fract_z
  _atom_site_thermal_displace_type
  _atom_site_B_iso_or_equiv
  _atom_site_type_symbol
  La1      1.0000 0.12789  0.01425  0.15663  Biso   1.000  La
  Hf1      1.0000 0.13672  0.02543  0.66929  Biso   1.000  Hf
  Hf2      1.0000 0.13281  0.45155  0.41747  Biso   1.000  Hf
  Hf3      1.0000 0.14431  0.46009  0.91554  Biso   1.000  Hf
  Hf4      1.0000 0.36357  0.52616  0.16926  Biso   1.000  Hf
  La2      1.0000 0.37236  0.51362  0.65657  Biso   1.000  La
  Hf5      1.0000 0.35598  0.96086  0.41554  Biso   1.000  Hf
  Hf6      1.0000 0.36749  0.95080  0.91747  Biso   1.000  Hf
  Hf7      1.0000 0.63938  0.03835  0.08161  Biso   1.000  Hf
  Hf8      1.0000 0.64123  0.03349  0.58041  Biso   1.000  Hf
  Hf9      1.0000 0.63615  0.45844  0.33294  Biso   1.000  Hf
  Hf10     1.0000 0.64886  0.46271  0.83478  Biso   1.000  Hf
  Hf11     1.0000 0.85898  0.53421  0.08032  Biso   1.000  Hf
  Hf12     1.0000 0.86076  0.53762  0.58158  Biso   1.000  Hf
  Hf13     1.0000 0.85125  0.96345  0.33472  Biso   1.000  Hf
  Hf14     1.0000 0.86400  0.95771  0.83291  Biso   1.000  Hf
  Hf15     1.0000 0.04158  0.40747  0.09218  Biso   1.000  Hf
  Hf16     1.0000 0.03062  0.33963  0.59168  Biso   1.000  Hf
  Hf17     1.0000 0.01901  0.16493  0.34578  Biso   1.000  Hf
  Hf18     1.0000 0.03437  0.15538  0.84438  Biso   1.000  Hf
  Hf19     1.0000 0.46945  0.84040  0.09174  Biso   1.000  Hf
  Hf20     1.0000 0.45851  0.90690  0.59231  Biso   1.000  Hf
  Hf21     1.0000 0.46586  0.65601  0.34445  Biso   1.000  Hf
  Hf22     1.0000 0.48120  0.66402  0.84578  Biso   1.000  Hf
  Hf23     1.0000 0.27910  0.24533  0.29475  Biso   1.000  Hf
  Hf24     1.0000 0.26841  0.22202  0.79420  Biso   1.000  Hf
  Hf25     1.0000 0.28597  0.25064  0.03468  Biso   1.000  Hf
  Hf26     1.0000 0.25197  0.22072  0.53167  Biso   1.000  Hf
  Hf27     1.0000 0.23190  0.72279  0.29417  Biso   1.000  Hf
  Hf28     1.0000 0.22117  0.74461  0.79469  Biso   1.000  Hf
  Hf29     1.0000 0.24811  0.72137  0.03165  Biso   1.000  Hf
  Hf30     1.0000 0.21417  0.74990  0.53471  Biso   1.000  Hf
  Hf31     1.0000 0.53654  0.33572  0.16419  Biso   1.000  Hf
  Hf32     1.0000 0.57765  0.36702  0.65579  Biso   1.000  Hf
  Hf33     1.0000 0.53351  0.15839  0.40994  Biso   1.000  Hf
  Hf34     1.0000 0.53994  0.16251  0.91086  Biso   1.000  Hf
  Hf35     1.0000 0.92252  0.86765  0.15580  Biso   1.000  Hf
  Hf36     1.0000 0.96367  0.83485  0.66420  Biso   1.000  Hf
  Hf37     1.0000 0.96045  0.66336  0.41085  Biso   1.000  Hf
  Hf38     1.0000 0.96679  0.65786  0.90996  Biso   1.000  Hf
  Hf39     1.0000 0.77752  0.24518  0.95981  Biso   1.000  Hf
  Hf40     1.0000 0.77111  0.24918  0.45922  Biso   1.000  Hf
  Hf41     1.0000 0.77157  0.26035  0.21002  Biso   1.000  Hf
  Hf42     1.0000 0.79096  0.25402  0.71224  Biso   1.000  Hf
  Hf43     1.0000 0.72917  0.74844  0.95922  Biso   1.000  Hf
  Hf44     1.0000 0.72282  0.74591  0.45982  Biso   1.000  Hf
  Hf45     1.0000 0.70914  0.75484  0.21226  Biso   1.000  Hf
  Hf46     1.0000 0.72862  0.75955  0.70996  Biso   1.000  Hf
