data_image0
_cell_length_a       10.1183
_cell_length_b       10.498
_cell_length_c       5.04722
_cell_angle_alpha    90
_cell_angle_beta     90
_cell_angle_gamma    90

_symmetry_space_group_name_H-M    "P 1"
_symmetry_int_tables_number       1

loop_
  _symmetry_equiv_pos_as_xyz
  'x, y, z'

loop_
  _atom_site_label
  _atom_site_occupancy
  _atom_site_fract_x
  _atom_site_fract_y
  _atom_site_fract_z
  _atom_site_thermal_displace_type
  _atom_site_B_iso_or_equiv
  _atom_site_type_symbol
  La1      1.0000 0.13041  0.00937  0.26357  Biso   1.000  La
  Hf1      1.0000 0.13111  0.51623  0.25541  Biso   1.000  Hf
  Hf2      1.0000 0.63148  0.01664  0.25339  Biso   1.000  Hf
  Hf3      1.0000 0.63126  0.51605  0.25675  Biso   1.000  Hf
  Hf4      1.0000 0.13694  0.24106  0.74747  Biso   1.000  Hf
  Hf5      1.0000 0.13941  0.72694  0.75844  Biso   1.000  Hf
  Hf6      1.0000 0.62838  0.23718  0.75222  Biso   1.000  Hf
  Hf7      1.0000 0.63072  0.73002  0.75574  Biso   1.000  Hf
  Hf8      1.0000 0.36538  0.26958  0.25572  Biso   1.000  Hf
  Hf9      1.0000 0.36767  0.76243  0.25219  Biso   1.000  Hf
  Hf10     1.0000 0.85664  0.27267  0.25839  Biso   1.000  Hf
  Hf11     1.0000 0.85916  0.75853  0.24748  Biso   1.000  Hf
  Hf12     1.0000 0.36482  0.48357  0.75673  Biso   1.000  Hf
  Hf13     1.0000 0.36464  0.98295  0.75335  Biso   1.000  Hf
  Hf14     1.0000 0.86501  0.48337  0.75542  Biso   1.000  Hf
  La2      1.0000 0.86566  0.99024  0.76355  Biso   1.000  La
  Hf15     1.0000 0.02576  0.20165  0.39988  Biso   1.000  Hf
  Hf16     1.0000 0.03473  0.68978  0.39378  Biso   1.000  Hf
  Hf17     1.0000 0.53003  0.18338  0.39301  Biso   1.000  Hf
  Hf18     1.0000 0.53329  0.68012  0.39567  Biso   1.000  Hf
  Hf19     1.0000 0.07995  0.05457  0.79184  Biso   1.000  Hf
  Hf20     1.0000 0.03663  0.55874  0.89233  Biso   1.000  Hf
  Hf21     1.0000 0.53543  0.06503  0.88900  Biso   1.000  Hf
  Hf22     1.0000 0.53101  0.56647  0.90016  Biso   1.000  Hf
  Hf23     1.0000 0.46510  0.43312  0.40021  Biso   1.000  Hf
  Hf24     1.0000 0.46066  0.93459  0.38895  Biso   1.000  Hf
  Hf25     1.0000 0.95949  0.44085  0.39232  Biso   1.000  Hf
  Hf26     1.0000 0.91612  0.94501  0.29191  Biso   1.000  Hf
  Hf27     1.0000 0.46278  0.31949  0.89561  Biso   1.000  Hf
  Hf28     1.0000 0.46609  0.81625  0.89302  Biso   1.000  Hf
  Hf29     1.0000 0.96137  0.30982  0.89372  Biso   1.000  Hf
  Hf30     1.0000 0.97032  0.79800  0.89996  Biso   1.000  Hf
  Hf31     1.0000 0.28552  0.13051  0.51250  Biso   1.000  Hf
  Hf32     1.0000 0.26734  0.61184  0.50200  Biso   1.000  Hf
  Hf33     1.0000 0.75601  0.13077  0.49480  Biso   1.000  Hf
  Hf34     1.0000 0.76707  0.61505  0.50360  Biso   1.000  Hf
  Hf35     1.0000 0.27804  0.13818  0.99905  Biso   1.000  Hf
  Hf36     1.0000 0.27044  0.62706  0.00675  Biso   1.000  Hf
  Hf37     1.0000 0.75353  0.14571  0.01537  Biso   1.000  Hf
  Hf38     1.0000 0.76769  0.62879  0.99914  Biso   1.000  Hf
  Hf39     1.0000 0.22897  0.38454  0.00359  Biso   1.000  Hf
  Hf40     1.0000 0.24008  0.86888  0.99480  Biso   1.000  Hf
  Hf41     1.0000 0.72871  0.38779  0.00199  Biso   1.000  Hf
  Hf42     1.0000 0.71054  0.86907  0.01256  Biso   1.000  Hf
  Hf43     1.0000 0.22841  0.37081  0.49912  Biso   1.000  Hf
  Hf44     1.0000 0.24251  0.85388  0.51541  Biso   1.000  Hf
  Hf45     1.0000 0.72561  0.37256  0.50675  Biso   1.000  Hf
  Hf46     1.0000 0.71805  0.86146  0.49906  Biso   1.000  Hf
