data_image0
_cell_length_a       10.1479
_cell_length_b       10.4877
_cell_length_c       5.07265
_cell_angle_alpha    90
_cell_angle_beta     90
_cell_angle_gamma    90

_symmetry_space_group_name_H-M    "P 1"
_symmetry_int_tables_number       1

loop_
  _symmetry_equiv_pos_as_xyz
  'x, y, z'

loop_
  _atom_site_label
  _atom_site_occupancy
  _atom_site_fract_x
  _atom_site_fract_y
  _atom_site_fract_z
  _atom_site_thermal_displace_type
  _atom_site_B_iso_or_equiv
  _atom_site_type_symbol
  La1      1.0000 0.11734  0.99989  0.24022  Biso   1.000  La
  Hf1      1.0000 0.13242  0.51473  0.25078  Biso   1.000  Hf
  Hf2      1.0000 0.63868  0.01091  0.25892  Biso   1.000  Hf
  Hf3      1.0000 0.63500  0.51702  0.25182  Biso   1.000  Hf
  Hf4      1.0000 0.12544  0.23715  0.73553  Biso   1.000  Hf
  Hf5      1.0000 0.13555  0.72684  0.75597  Biso   1.000  Hf
  Hf6      1.0000 0.64106  0.22763  0.75683  Biso   1.000  Hf
  Hf7      1.0000 0.63173  0.72663  0.75933  Biso   1.000  Hf
  La2      1.0000 0.37624  0.25424  0.23673  Biso   1.000  La
  Hf8      1.0000 0.36740  0.76079  0.24812  Biso   1.000  Hf
  Hf9      1.0000 0.86165  0.26972  0.25354  Biso   1.000  Hf
  Hf10     1.0000 0.86151  0.75783  0.25657  Biso   1.000  Hf
  Hf11     1.0000 0.36278  0.48223  0.74482  Biso   1.000  Hf
  Hf12     1.0000 0.36812  0.97379  0.74832  Biso   1.000  Hf
  Hf13     1.0000 0.86471  0.48059  0.75314  Biso   1.000  Hf
  Hf14     1.0000 0.85563  0.97636  0.76174  Biso   1.000  Hf
  Hf15     1.0000 0.03277  0.20238  0.37741  Biso   1.000  Hf
  Hf16     1.0000 0.03388  0.68402  0.39755  Biso   1.000  Hf
  Hf17     1.0000 0.55951  0.17360  0.41134  Biso   1.000  Hf
  Hf18     1.0000 0.53598  0.68344  0.39830  Biso   1.000  Hf
  Hf19     1.0000 0.02282  0.07162  0.83130  Biso   1.000  Hf
  Hf20     1.0000 0.02993  0.56634  0.89466  Biso   1.000  Hf
  Hf21     1.0000 0.53049  0.06868  0.91677  Biso   1.000  Hf
  Hf22     1.0000 0.53091  0.56531  0.90073  Biso   1.000  Hf
  Hf23     1.0000 0.46647  0.44910  0.38889  Biso   1.000  Hf
  Hf24     1.0000 0.46220  0.93349  0.38989  Biso   1.000  Hf
  Hf25     1.0000 0.95880  0.43980  0.38969  Biso   1.000  Hf
  Hf26     1.0000 0.93261  0.92027  0.41413  Biso   1.000  Hf
  Hf27     1.0000 0.46913  0.31891  0.82868  Biso   1.000  Hf
  Hf28     1.0000 0.47377  0.81516  0.90218  Biso   1.000  Hf
  Hf29     1.0000 0.95866  0.31708  0.89131  Biso   1.000  Hf
  Hf30     1.0000 0.97493  0.82043  0.92328  Biso   1.000  Hf
  Hf31     1.0000 0.26878  0.11141  0.52471  Biso   1.000  Hf
  Hf32     1.0000 0.26811  0.61342  0.49511  Biso   1.000  Hf
  Hf33     1.0000 0.77829  0.11451  0.51165  Biso   1.000  Hf
  Hf34     1.0000 0.76835  0.61513  0.50098  Biso   1.000  Hf
  Hf35     1.0000 0.25926  0.11969  0.95672  Biso   1.000  Hf
  Hf36     1.0000 0.26788  0.62498  0.99933  Biso   1.000  Hf
  Hf37     1.0000 0.76927  0.12968  0.01382  Biso   1.000  Hf
  Hf38     1.0000 0.76792  0.62568  0.99706  Biso   1.000  Hf
  Hf39     1.0000 0.22354  0.38264  0.98571  Biso   1.000  Hf
  Hf40     1.0000 0.24333  0.86437  0.98520  Biso   1.000  Hf
  Hf41     1.0000 0.72730  0.38363  0.00371  Biso   1.000  Hf
  Hf42     1.0000 0.73007  0.87592  0.00905  Biso   1.000  Hf
  Hf43     1.0000 0.21838  0.37640  0.50281  Biso   1.000  Hf
  Hf44     1.0000 0.24114  0.85025  0.50701  Biso   1.000  Hf
  Hf45     1.0000 0.72975  0.36683  0.50479  Biso   1.000  Hf
  Hf46     1.0000 0.71521  0.86204  0.50797  Biso   1.000  Hf
