data_image0
_cell_length_a       5.13618
_cell_length_b       10.4472
_cell_length_c       10.5279
_cell_angle_alpha    90
_cell_angle_beta     80
_cell_angle_gamma    90

_symmetry_space_group_name_H-M    "P 1"
_symmetry_int_tables_number       1

loop_
  _symmetry_equiv_pos_as_xyz
  'x, y, z'

loop_
  _atom_site_label
  _atom_site_occupancy
  _atom_site_fract_x
  _atom_site_fract_y
  _atom_site_fract_z
  _atom_site_thermal_displace_type
  _atom_site_B_iso_or_equiv
  _atom_site_type_symbol
  La1      1.0000 0.26195  0.01259  0.14340  Biso   1.000  La
  Hf1      1.0000 0.25789  0.00823  0.65184  Biso   1.000  Hf
  Hf2      1.0000 0.27238  0.51821  0.14434  Biso   1.000  Hf
  Hf3      1.0000 0.26640  0.51910  0.64823  Biso   1.000  Hf
  Hf4      1.0000 0.27959  0.23101  0.39127  Biso   1.000  Hf
  Hf5      1.0000 0.24302  0.22930  0.89669  Biso   1.000  Hf
  Hf6      1.0000 0.26709  0.72055  0.39967  Biso   1.000  Hf
  Hf7      1.0000 0.25968  0.72537  0.89751  Biso   1.000  Hf
  Hf8      1.0000 0.71198  0.27258  0.10062  Biso   1.000  Hf
  La2      1.0000 0.71988  0.25852  0.61060  Biso   1.000  La
  Hf9      1.0000 0.72257  0.76135  0.10462  Biso   1.000  Hf
  Hf10     1.0000 0.70924  0.76579  0.60606  Biso   1.000  Hf
  Hf11     1.0000 0.71292  0.47787  0.35091  Biso   1.000  Hf
  Hf12     1.0000 0.70031  0.48025  0.85565  Biso   1.000  Hf
  Hf13     1.0000 0.70500  0.97031  0.36056  Biso   1.000  Hf
  Hf14     1.0000 0.69951  0.97449  0.85834  Biso   1.000  Hf
  Hf15     1.0000 0.06538  0.18879  0.07397  Biso   1.000  Hf
  Hf16     1.0000 0.12970  0.17787  0.58649  Biso   1.000  Hf
  Hf17     1.0000 0.08052  0.67386  0.08351  Biso   1.000  Hf
  Hf18     1.0000 0.06259  0.67004  0.58473  Biso   1.000  Hf
  Hf19     1.0000 0.03393  0.08385  0.35252  Biso   1.000  Hf
  Hf20     1.0000 0.02968  0.08112  0.83176  Biso   1.000  Hf
  Hf21     1.0000 0.06053  0.57994  0.32911  Biso   1.000  Hf
  Hf22     1.0000 0.05000  0.58109  0.83721  Biso   1.000  Hf
  Hf23     1.0000 0.91740  0.42523  0.16305  Biso   1.000  Hf
  Hf24     1.0000 0.91242  0.43815  0.67304  Biso   1.000  Hf
  Hf25     1.0000 0.86438  0.92310  0.17292  Biso   1.000  Hf
  Hf26     1.0000 0.90415  0.91949  0.67134  Biso   1.000  Hf
  Hf27     1.0000 0.93724  0.33326  0.40391  Biso   1.000  Hf
  Hf28     1.0000 0.89262  0.32898  0.91254  Biso   1.000  Hf
  Hf29     1.0000 0.92294  0.82776  0.42247  Biso   1.000  Hf
  Hf30     1.0000 0.92714  0.83316  0.92607  Biso   1.000  Hf
  Hf31     1.0000 0.55296  0.13790  0.24828  Biso   1.000  Hf
  Hf32     1.0000 0.49936  0.11075  0.75519  Biso   1.000  Hf
  Hf33     1.0000 0.54419  0.62192  0.23998  Biso   1.000  Hf
  Hf34     1.0000 0.53270  0.62830  0.74256  Biso   1.000  Hf
  Hf35     1.0000 0.51968  0.10492  0.48893  Biso   1.000  Hf
  Hf36     1.0000 0.53264  0.12454  0.98662  Biso   1.000  Hf
  Hf37     1.0000 0.54569  0.62006  0.49144  Biso   1.000  Hf
  Hf38     1.0000 0.52348  0.61472  0.99388  Biso   1.000  Hf
  Hf39     1.0000 0.44623  0.38141  0.00757  Biso   1.000  Hf
  Hf40     1.0000 0.43076  0.38562  0.49953  Biso   1.000  Hf
  Hf41     1.0000 0.45349  0.86159  0.00101  Biso   1.000  Hf
  Hf42     1.0000 0.43760  0.87043  0.51509  Biso   1.000  Hf
  Hf43     1.0000 0.44150  0.37275  0.25453  Biso   1.000  Hf
  Hf44     1.0000 0.41354  0.37588  0.76762  Biso   1.000  Hf
  Hf45     1.0000 0.44480  0.85376  0.27043  Biso   1.000  Hf
  Hf46     1.0000 0.43204  0.86359  0.76023  Biso   1.000  Hf
