data_image0
_cell_length_a       10.185
_cell_length_b       5.21019
_cell_length_c       10.4389
_cell_angle_alpha    90
_cell_angle_beta     90
_cell_angle_gamma    90

_symmetry_space_group_name_H-M    "P 1"
_symmetry_int_tables_number       1

loop_
  _symmetry_equiv_pos_as_xyz
  'x, y, z'

loop_
  _atom_site_label
  _atom_site_occupancy
  _atom_site_fract_x
  _atom_site_fract_y
  _atom_site_fract_z
  _atom_site_thermal_displace_type
  _atom_site_B_iso_or_equiv
  _atom_site_type_symbol
  La1      1.0000 0.12262  0.01549  0.15390  Biso   1.000  La
  Hf1      1.0000 0.14286  0.04715  0.66964  Biso   1.000  Hf
  Hf2      1.0000 0.13287  0.46607  0.42069  Biso   1.000  Hf
  Hf3      1.0000 0.13989  0.46926  0.91421  Biso   1.000  Hf
  Hf4      1.0000 0.36061  0.52259  0.16411  Biso   1.000  Hf
  Hf5      1.0000 0.36017  0.54784  0.66886  Biso   1.000  Hf
  La2      1.0000 0.36634  0.97907  0.40675  Biso   1.000  La
  Hf6      1.0000 0.36319  0.96036  0.91648  Biso   1.000  Hf
  Hf7      1.0000 0.63983  0.03736  0.08112  Biso   1.000  Hf
  Hf8      1.0000 0.64633  0.03869  0.58921  Biso   1.000  Hf
  Hf9      1.0000 0.64028  0.46320  0.33213  Biso   1.000  Hf
  Hf10     1.0000 0.63652  0.46007  0.82940  Biso   1.000  Hf
  Hf11     1.0000 0.85302  0.53416  0.07561  Biso   1.000  Hf
  Hf12     1.0000 0.86256  0.54795  0.58448  Biso   1.000  Hf
  Hf13     1.0000 0.84532  0.96922  0.33829  Biso   1.000  Hf
  Hf14     1.0000 0.85963  0.96388  0.83197  Biso   1.000  Hf
  Hf15     1.0000 0.03552  0.40683  0.08722  Biso   1.000  Hf
  Hf16     1.0000 0.03182  0.34896  0.59521  Biso   1.000  Hf
  Hf17     1.0000 0.02022  0.16687  0.35121  Biso   1.000  Hf
  Hf18     1.0000 0.04035  0.15480  0.84506  Biso   1.000  Hf
  Hf19     1.0000 0.46120  0.84430  0.09427  Biso   1.000  Hf
  Hf20     1.0000 0.47087  0.84171  0.60072  Biso   1.000  Hf
  Hf21     1.0000 0.45813  0.58655  0.34376  Biso   1.000  Hf
  Hf22     1.0000 0.46462  0.65338  0.83928  Biso   1.000  Hf
  Hf23     1.0000 0.25397  0.27370  0.28592  Biso   1.000  Hf
  Hf24     1.0000 0.27821  0.25218  0.79062  Biso   1.000  Hf
  Hf25     1.0000 0.28094  0.24826  0.03190  Biso   1.000  Hf
  Hf26     1.0000 0.26700  0.27450  0.54688  Biso   1.000  Hf
  Hf27     1.0000 0.22131  0.72215  0.28695  Biso   1.000  Hf
  Hf28     1.0000 0.22457  0.75568  0.78998  Biso   1.000  Hf
  Hf29     1.0000 0.24135  0.72284  0.02859  Biso   1.000  Hf
  Hf30     1.0000 0.21593  0.75615  0.54875  Biso   1.000  Hf
  Hf31     1.0000 0.53629  0.33261  0.15939  Biso   1.000  Hf
  Hf32     1.0000 0.53644  0.34126  0.65935  Biso   1.000  Hf
  Hf33     1.0000 0.57752  0.12414  0.40600  Biso   1.000  Hf
  Hf34     1.0000 0.54190  0.15340  0.91052  Biso   1.000  Hf
  Hf35     1.0000 0.91439  0.86888  0.15544  Biso   1.000  Hf
  Hf36     1.0000 0.96128  0.85465  0.66284  Biso   1.000  Hf
  Hf37     1.0000 0.95993  0.67139  0.41195  Biso   1.000  Hf
  Hf38     1.0000 0.96280  0.66472  0.90632  Biso   1.000  Hf
  Hf39     1.0000 0.77675  0.24865  0.95688  Biso   1.000  Hf
  Hf40     1.0000 0.78464  0.25392  0.46560  Biso   1.000  Hf
  Hf41     1.0000 0.77353  0.26170  0.20924  Biso   1.000  Hf
  Hf42     1.0000 0.77695  0.25602  0.71133  Biso   1.000  Hf
  Hf43     1.0000 0.72132  0.74772  0.95618  Biso   1.000  Hf
  Hf44     1.0000 0.72297  0.74229  0.46389  Biso   1.000  Hf
  Hf45     1.0000 0.70580  0.75628  0.21148  Biso   1.000  Hf
  Hf46     1.0000 0.72619  0.75225  0.71045  Biso   1.000  Hf
