data_image0
_cell_length_a       5.14043
_cell_length_b       10.4283
_cell_length_c       10.5373
_cell_angle_alpha    90
_cell_angle_beta     80
_cell_angle_gamma    90

_symmetry_space_group_name_H-M    "P 1"
_symmetry_int_tables_number       1

loop_
  _symmetry_equiv_pos_as_xyz
  'x, y, z'

loop_
  _atom_site_label
  _atom_site_occupancy
  _atom_site_fract_x
  _atom_site_fract_y
  _atom_site_fract_z
  _atom_site_thermal_displace_type
  _atom_site_B_iso_or_equiv
  _atom_site_type_symbol
  La1      1.0000 0.26174  0.00842  0.14019  Biso   1.000  La
  Hf1      1.0000 0.25436  0.01723  0.64857  Biso   1.000  Hf
  Hf2      1.0000 0.26040  0.51853  0.14703  Biso   1.000  Hf
  La2      1.0000 0.22925  0.50699  0.64174  Biso   1.000  La
  Hf3      1.0000 0.26411  0.22788  0.39569  Biso   1.000  Hf
  Hf4      1.0000 0.23276  0.22497  0.90005  Biso   1.000  Hf
  Hf5      1.0000 0.23876  0.72629  0.39855  Biso   1.000  Hf
  Hf6      1.0000 0.23163  0.72647  0.89725  Biso   1.000  Hf
  Hf7      1.0000 0.70601  0.27172  0.10341  Biso   1.000  Hf
  Hf8      1.0000 0.69739  0.25967  0.60514  Biso   1.000  Hf
  Hf9      1.0000 0.70339  0.76098  0.10366  Biso   1.000  Hf
  Hf10     1.0000 0.67354  0.77031  0.60497  Biso   1.000  Hf
  Hf11     1.0000 0.70267  0.47632  0.35257  Biso   1.000  Hf
  Hf12     1.0000 0.66428  0.47684  0.86204  Biso   1.000  Hf
  Hf13     1.0000 0.67039  0.97814  0.36050  Biso   1.000  Hf
  Hf14     1.0000 0.67023  0.97490  0.85410  Biso   1.000  Hf
  Hf15     1.0000 0.05813  0.18685  0.07715  Biso   1.000  Hf
  Hf16     1.0000 0.05722  0.17580  0.58956  Biso   1.000  Hf
  Hf17     1.0000 0.06324  0.67711  0.08801  Biso   1.000  Hf
  Hf18     1.0000 0.02568  0.68545  0.57875  Biso   1.000  Hf
  Hf19     1.0000 0.03754  0.08108  0.34800  Biso   1.000  Hf
  Hf20     1.0000 0.04353  0.07633  0.83336  Biso   1.000  Hf
  Hf21     1.0000 0.04960  0.57764  0.33182  Biso   1.000  Hf
  Hf22     1.0000 0.00503  0.57968  0.84956  Biso   1.000  Hf
  Hf23     1.0000 0.90775  0.42116  0.17016  Biso   1.000  Hf
  Hf24     1.0000 0.82069  0.42661  0.67109  Biso   1.000  Hf
  Hf25     1.0000 0.82682  0.92787  0.16960  Biso   1.000  Hf
  Hf26     1.0000 0.87529  0.91976  0.67171  Biso   1.000  Hf
  Hf27     1.0000 0.93078  0.33646  0.42425  Biso   1.000  Hf
  Hf28     1.0000 0.88675  0.33242  0.91685  Biso   1.000  Hf
  Hf29     1.0000 0.89271  0.83371  0.41540  Biso   1.000  Hf
  Hf30     1.0000 0.89834  0.83506  0.92579  Biso   1.000  Hf
  Hf31     1.0000 0.54720  0.13778  0.24920  Biso   1.000  Hf
  Hf32     1.0000 0.52573  0.12028  0.73978  Biso   1.000  Hf
  Hf33     1.0000 0.53178  0.62158  0.23826  Biso   1.000  Hf
  Hf34     1.0000 0.51468  0.63634  0.75078  Biso   1.000  Hf
  Hf35     1.0000 0.52180  0.11551  0.49533  Biso   1.000  Hf
  Hf36     1.0000 0.52533  0.12421  0.98316  Biso   1.000  Hf
  Hf37     1.0000 0.53132  0.62552  0.48164  Biso   1.000  Hf
  Hf38     1.0000 0.48931  0.61409  0.99690  Biso   1.000  Hf
  Hf39     1.0000 0.43868  0.38002  0.01062  Biso   1.000  Hf
  Hf40     1.0000 0.46003  0.36264  0.49555  Biso   1.000  Hf
  Hf41     1.0000 0.42755  0.86123  0.99712  Biso   1.000  Hf
  Hf42     1.0000 0.40617  0.87861  0.51220  Biso   1.000  Hf
  Hf43     1.0000 0.42617  0.37228  0.25714  Biso   1.000  Hf
  Hf44     1.0000 0.41368  0.35434  0.76894  Biso   1.000  Hf
  Hf45     1.0000 0.41968  0.85566  0.26742  Biso   1.000  Hf
  Hf46     1.0000 0.39374  0.87087  0.75870  Biso   1.000  Hf
