data_image0
_cell_length_a       10.2781
_cell_length_b       5.20846
_cell_length_c       10.4473
_cell_angle_alpha    90
_cell_angle_beta     80
_cell_angle_gamma    90

_symmetry_space_group_name_H-M    "P 1"
_symmetry_int_tables_number       1

loop_
  _symmetry_equiv_pos_as_xyz
  'x, y, z'

loop_
  _atom_site_label
  _atom_site_occupancy
  _atom_site_fract_x
  _atom_site_fract_y
  _atom_site_fract_z
  _atom_site_thermal_displace_type
  _atom_site_B_iso_or_equiv
  _atom_site_type_symbol
  La1      1.0000 0.11723  0.01651  0.13984  Biso   1.000  La
  Hf1      1.0000 0.12278  0.04371  0.64962  Biso   1.000  Hf
  Hf2      1.0000 0.63401  0.03417  0.14728  Biso   1.000  Hf
  Hf3      1.0000 0.63048  0.03793  0.64260  Biso   1.000  Hf
  Hf4      1.0000 0.12611  0.45165  0.39818  Biso   1.000  Hf
  Hf5      1.0000 0.10635  0.47715  0.89619  Biso   1.000  Hf
  Hf6      1.0000 0.61655  0.45340  0.40066  Biso   1.000  Hf
  Hf7      1.0000 0.62084  0.46253  0.89758  Biso   1.000  Hf
  Hf8      1.0000 0.35898  0.52167  0.10831  Biso   1.000  Hf
  Hf9      1.0000 0.33926  0.54715  0.60631  Biso   1.000  Hf
  Hf10     1.0000 0.84445  0.53634  0.10681  Biso   1.000  Hf
  Hf11     1.0000 0.84875  0.54547  0.60374  Biso   1.000  Hf
  Hf12     1.0000 0.34255  0.95511  0.35487  Biso   1.000  Hf
  La2      1.0000 0.34810  0.98229  0.86465  Biso   1.000  La
  Hf13     1.0000 0.83483  0.96093  0.36181  Biso   1.000  Hf
  Hf14     1.0000 0.83129  0.96470  0.85712  Biso   1.000  Hf
  Hf15     1.0000 0.02734  0.41348  0.08957  Biso   1.000  Hf
  Hf16     1.0000 0.02204  0.35195  0.58683  Biso   1.000  Hf
  Hf17     1.0000 0.53750  0.33515  0.08428  Biso   1.000  Hf
  Hf18     1.0000 0.51560  0.33457  0.58953  Biso   1.000  Hf
  Hf19     1.0000 0.01246  0.16280  0.34779  Biso   1.000  Hf
  Hf20     1.0000 0.01387  0.15432  0.84281  Biso   1.000  Hf
  Hf21     1.0000 0.52464  0.14774  0.33478  Biso   1.000  Hf
  Hf22     1.0000 0.56123  0.12103  0.83555  Biso   1.000  Hf
  Hf23     1.0000 0.45146  0.84451  0.16164  Biso   1.000  Hf
  Hf24     1.0000 0.45287  0.83605  0.65670  Biso   1.000  Hf
  Hf25     1.0000 0.90409  0.87784  0.16886  Biso   1.000  Hf
  Hf26     1.0000 0.94068  0.85110  0.66963  Biso   1.000  Hf
  Hf27     1.0000 0.44330  0.64692  0.41765  Biso   1.000  Hf
  Hf28     1.0000 0.43796  0.58531  0.91486  Biso   1.000  Hf
  Hf29     1.0000 0.94970  0.66428  0.41491  Biso   1.000  Hf
  Hf30     1.0000 0.92780  0.66368  0.92014  Biso   1.000  Hf
  Hf31     1.0000 0.27063  0.25169  0.24932  Biso   1.000  Hf
  Hf32     1.0000 0.24404  0.28169  0.74035  Biso   1.000  Hf
  Hf33     1.0000 0.75813  0.26651  0.24764  Biso   1.000  Hf
  Hf34     1.0000 0.77117  0.26012  0.73683  Biso   1.000  Hf
  Hf35     1.0000 0.25946  0.23777  0.49391  Biso   1.000  Hf
  Hf36     1.0000 0.23168  0.27057  0.99923  Biso   1.000  Hf
  Hf37     1.0000 0.75657  0.24479  0.49357  Biso   1.000  Hf
  Hf38     1.0000 0.74885  0.23929  0.99696  Biso   1.000  Hf
  Hf39     1.0000 0.23364  0.72820  0.00528  Biso   1.000  Hf
  Hf40     1.0000 0.20589  0.76102  0.51060  Biso   1.000  Hf
  Hf41     1.0000 0.71645  0.75960  0.00742  Biso   1.000  Hf
  Hf42     1.0000 0.70873  0.75408  0.51082  Biso   1.000  Hf
  Hf43     1.0000 0.22130  0.71716  0.26417  Biso   1.000  Hf
  Hf44     1.0000 0.19470  0.74714  0.75518  Biso   1.000  Hf
  Hf45     1.0000 0.69413  0.73874  0.26756  Biso   1.000  Hf
  Hf46     1.0000 0.70717  0.73235  0.75677  Biso   1.000  Hf
