data_image0
_cell_length_a       10.2321
_cell_length_b       5.18706
_cell_length_c       10.5333
_cell_angle_alpha    90
_cell_angle_beta     90
_cell_angle_gamma    90

_symmetry_space_group_name_H-M    "P 1"
_symmetry_int_tables_number       1

loop_
  _symmetry_equiv_pos_as_xyz
  'x, y, z'

loop_
  _atom_site_label
  _atom_site_occupancy
  _atom_site_fract_x
  _atom_site_fract_y
  _atom_site_fract_z
  _atom_site_thermal_displace_type
  _atom_site_B_iso_or_equiv
  _atom_site_type_symbol
  La1      1.0000 0.13146  0.01985  0.16294  Biso   1.000  La
  Hf1      1.0000 0.13874  0.04155  0.66991  Biso   1.000  Hf
  Hf2      1.0000 0.13775  0.45277  0.42167  Biso   1.000  Hf
  Hf3      1.0000 0.14271  0.46742  0.91631  Biso   1.000  Hf
  Hf4      1.0000 0.36534  0.52777  0.16963  Biso   1.000  Hf
  Hf5      1.0000 0.35373  0.53469  0.66265  Biso   1.000  Hf
  Hf6      1.0000 0.36135  0.95289  0.41952  Biso   1.000  Hf
  Hf7      1.0000 0.36239  0.96315  0.92016  Biso   1.000  Hf
  Hf8      1.0000 0.64268  0.03124  0.08371  Biso   1.000  Hf
  Hf9      1.0000 0.63781  0.04587  0.57833  Biso   1.000  Hf
  Hf10     1.0000 0.63858  0.45705  0.33006  Biso   1.000  Hf
  La2      1.0000 0.63149  0.47868  0.83706  Biso   1.000  La
  Hf11     1.0000 0.86238  0.53561  0.07982  Biso   1.000  Hf
  Hf12     1.0000 0.86141  0.54595  0.58049  Biso   1.000  Hf
  Hf13     1.0000 0.85359  0.96412  0.33737  Biso   1.000  Hf
  Hf14     1.0000 0.86533  0.97104  0.83039  Biso   1.000  Hf
  Hf15     1.0000 0.04308  0.39815  0.08749  Biso   1.000  Hf
  Hf16     1.0000 0.03446  0.34368  0.59030  Biso   1.000  Hf
  Hf17     1.0000 0.02158  0.17429  0.35020  Biso   1.000  Hf
  Hf18     1.0000 0.03737  0.16757  0.83795  Biso   1.000  Hf
  Hf19     1.0000 0.47140  0.82349  0.08794  Biso   1.000  Hf
  Hf20     1.0000 0.46721  0.82535  0.58302  Biso   1.000  Hf
  Hf21     1.0000 0.47059  0.66463  0.33415  Biso   1.000  Hf
  Hf22     1.0000 0.43272  0.64905  0.83053  Biso   1.000  Hf
  Hf23     1.0000 0.28138  0.24441  0.30079  Biso   1.000  Hf
  Hf24     1.0000 0.27495  0.24061  0.78873  Biso   1.000  Hf
  Hf25     1.0000 0.28579  0.25594  0.03550  Biso   1.000  Hf
  Hf26     1.0000 0.27011  0.24362  0.54189  Biso   1.000  Hf
  Hf27     1.0000 0.23465  0.72250  0.29954  Biso   1.000  Hf
  Hf28     1.0000 0.21204  0.74515  0.78691  Biso   1.000  Hf
  Hf29     1.0000 0.24520  0.72786  0.03304  Biso   1.000  Hf
  Hf30     1.0000 0.22420  0.75111  0.54222  Biso   1.000  Hf
  Hf31     1.0000 0.53730  0.33116  0.16206  Biso   1.000  Hf
  Hf32     1.0000 0.52163  0.32443  0.64981  Biso   1.000  Hf
  Hf33     1.0000 0.53442  0.15503  0.40967  Biso   1.000  Hf
  Hf34     1.0000 0.54316  0.10059  0.91248  Biso   1.000  Hf
  Hf35     1.0000 0.93258  0.84981  0.16941  Biso   1.000  Hf
  Hf36     1.0000 0.97062  0.83411  0.66579  Biso   1.000  Hf
  Hf37     1.0000 0.96716  0.67338  0.41696  Biso   1.000  Hf
  Hf38     1.0000 0.97144  0.67525  0.91208  Biso   1.000  Hf
  Hf39     1.0000 0.78588  0.24271  0.96445  Biso   1.000  Hf
  Hf40     1.0000 0.77009  0.25511  0.45805  Biso   1.000  Hf
  Hf41     1.0000 0.77492  0.25819  0.21128  Biso   1.000  Hf
  Hf42     1.0000 0.78140  0.25425  0.69925  Biso   1.000  Hf
  Hf43     1.0000 0.74524  0.77090  0.96699  Biso   1.000  Hf
  Hf44     1.0000 0.72421  0.74762  0.45785  Biso   1.000  Hf
  Hf45     1.0000 0.71190  0.75377  0.21319  Biso   1.000  Hf
  Hf46     1.0000 0.73468  0.77629  0.70049  Biso   1.000  Hf
