data_image0
_cell_length_a       10.2888
_cell_length_b       5.18803
_cell_length_c       10.4366
_cell_angle_alpha    90
_cell_angle_beta     80
_cell_angle_gamma    90

_symmetry_space_group_name_H-M    "P 1"
_symmetry_int_tables_number       1

loop_
  _symmetry_equiv_pos_as_xyz
  'x, y, z'

loop_
  _atom_site_label
  _atom_site_occupancy
  _atom_site_fract_x
  _atom_site_fract_y
  _atom_site_fract_z
  _atom_site_thermal_displace_type
  _atom_site_B_iso_or_equiv
  _atom_site_type_symbol
  La1      1.0000 0.12022  0.01102  0.13022  Biso   1.000  La
  Hf1      1.0000 0.11795  0.04167  0.64604  Biso   1.000  Hf
  Hf2      1.0000 0.64381  0.03681  0.14637  Biso   1.000  Hf
  Hf3      1.0000 0.61323  0.03819  0.65410  Biso   1.000  Hf
  La2      1.0000 0.11353  0.46908  0.38313  Biso   1.000  La
  Hf4      1.0000 0.11492  0.46122  0.89449  Biso   1.000  Hf
  Hf5      1.0000 0.62206  0.45867  0.40308  Biso   1.000  Hf
  Hf6      1.0000 0.61601  0.45264  0.90112  Biso   1.000  Hf
  Hf7      1.0000 0.36884  0.52894  0.09834  Biso   1.000  Hf
  Hf8      1.0000 0.33780  0.53804  0.60229  Biso   1.000  Hf
  Hf9      1.0000 0.85642  0.53578  0.10749  Biso   1.000  Hf
  Hf10     1.0000 0.83528  0.53432  0.61504  Biso   1.000  Hf
  Hf11     1.0000 0.35411  0.96674  0.35085  Biso   1.000  Hf
  Hf12     1.0000 0.33776  0.95184  0.85334  Biso   1.000  Hf
  Hf13     1.0000 0.83505  0.96014  0.36624  Biso   1.000  Hf
  Hf14     1.0000 0.83923  0.95079  0.85993  Biso   1.000  Hf
  Hf15     1.0000 0.04471  0.43091  0.10098  Biso   1.000  Hf
  Hf16     1.0000 0.00866  0.34353  0.60212  Biso   1.000  Hf
  Hf17     1.0000 0.54345  0.33144  0.07723  Biso   1.000  Hf
  Hf18     1.0000 0.51150  0.33162  0.58558  Biso   1.000  Hf
  Hf19     1.0000 0.02016  0.06429  0.35539  Biso   1.000  Hf
  Hf20     1.0000 0.01555  0.13835  0.84931  Biso   1.000  Hf
  Hf21     1.0000 0.52857  0.16095  0.33067  Biso   1.000  Hf
  Hf22     1.0000 0.50962  0.16046  0.83536  Biso   1.000  Hf
  Hf23     1.0000 0.47648  0.82521  0.16652  Biso   1.000  Hf
  Hf24     1.0000 0.44215  0.83117  0.67318  Biso   1.000  Hf
  Hf25     1.0000 0.90610  0.88573  0.16646  Biso   1.000  Hf
  Hf26     1.0000 0.94083  0.84171  0.66986  Biso   1.000  Hf
  Hf27     1.0000 0.45063  0.66043  0.42200  Biso   1.000  Hf
  Hf28     1.0000 0.44982  0.66535  0.92104  Biso   1.000  Hf
  Hf29     1.0000 0.90225  0.61304  0.41680  Biso   1.000  Hf
  Hf30     1.0000 0.93507  0.64617  0.92206  Biso   1.000  Hf
  Hf31     1.0000 0.28643  0.24621  0.23123  Biso   1.000  Hf
  Hf32     1.0000 0.24965  0.25490  0.74029  Biso   1.000  Hf
  Hf33     1.0000 0.76405  0.27119  0.25015  Biso   1.000  Hf
  Hf34     1.0000 0.75029  0.25160  0.74969  Biso   1.000  Hf
  Hf35     1.0000 0.26291  0.23895  0.49469  Biso   1.000  Hf
  Hf36     1.0000 0.25150  0.24030  0.98155  Biso   1.000  Hf
  Hf37     1.0000 0.74890  0.23198  0.50391  Biso   1.000  Hf
  Hf38     1.0000 0.75089  0.23212  0.99771  Biso   1.000  Hf
  Hf39     1.0000 0.21576  0.72898  0.99285  Biso   1.000  Hf
  Hf40     1.0000 0.21500  0.77590  0.50992  Biso   1.000  Hf
  Hf41     1.0000 0.72893  0.75629  0.00738  Biso   1.000  Hf
  Hf42     1.0000 0.69339  0.75399  0.52257  Biso   1.000  Hf
  Hf43     1.0000 0.24685  0.73949  0.24342  Biso   1.000  Hf
  Hf44     1.0000 0.19901  0.73702  0.75633  Biso   1.000  Hf
  Hf45     1.0000 0.69991  0.74095  0.26793  Biso   1.000  Hf
  Hf46     1.0000 0.70319  0.73744  0.76565  Biso   1.000  Hf
