data_image0
_cell_length_a       10.0719
_cell_length_b       10.4343
_cell_length_c       5.24752
_cell_angle_alpha    90
_cell_angle_beta     90
_cell_angle_gamma    90

_symmetry_space_group_name_H-M    "P 1"
_symmetry_int_tables_number       1

loop_
  _symmetry_equiv_pos_as_xyz
  'x, y, z'

loop_
  _atom_site_label
  _atom_site_occupancy
  _atom_site_fract_x
  _atom_site_fract_y
  _atom_site_fract_z
  _atom_site_thermal_displace_type
  _atom_site_B_iso_or_equiv
  _atom_site_type_symbol
  La1      1.0000 0.12138  0.00980  0.31516  Biso   1.000  La
  Hf1      1.0000 0.14900  0.51822  0.34237  Biso   1.000  Hf
  Hf2      1.0000 0.15204  0.24191  0.84616  Biso   1.000  Hf
  Hf3      1.0000 0.15893  0.72992  0.82407  Biso   1.000  Hf
  Hf4      1.0000 0.36876  0.26501  0.33583  Biso   1.000  Hf
  Hf5      1.0000 0.36550  0.76816  0.29021  Biso   1.000  Hf
  Hf6      1.0000 0.37753  0.47775  0.83222  Biso   1.000  Hf
  Hf7      1.0000 0.36894  0.99182  0.79009  Biso   1.000  Hf
  Hf8      1.0000 0.60314  0.00081  0.17175  Biso   1.000  Hf
  Hf9      1.0000 0.63668  0.51647  0.17044  Biso   1.000  Hf
  Hf10     1.0000 0.65084  0.23642  0.68639  Biso   1.000  Hf
  La2      1.0000 0.63013  0.75128  0.68855  Biso   1.000  La
  Hf11     1.0000 0.86097  0.27684  0.18353  Biso   1.000  Hf
  Hf12     1.0000 0.86951  0.74483  0.14628  Biso   1.000  Hf
  Hf13     1.0000 0.87058  0.48380  0.66139  Biso   1.000  Hf
  Hf14     1.0000 0.87199  0.00748  0.74862  Biso   1.000  Hf
  Hf15     1.0000 0.04032  0.19687  0.19735  Biso   1.000  Hf
  Hf16     1.0000 0.05285  0.68277  0.19174  Biso   1.000  Hf
  Hf17     1.0000 0.05244  0.07562  0.76006  Biso   1.000  Hf
  Hf18     1.0000 0.04917  0.58306  0.67872  Biso   1.000  Hf
  Hf19     1.0000 0.46616  0.41308  0.17410  Biso   1.000  Hf
  Hf20     1.0000 0.47810  0.86392  0.00342  Biso   1.000  Hf
  Hf21     1.0000 0.47204  0.32761  0.66939  Biso   1.000  Hf
  Hf22     1.0000 0.48777  0.91301  0.47351  Biso   1.000  Hf
  Hf23     1.0000 0.27665  0.13167  0.57394  Biso   1.000  Hf
  Hf24     1.0000 0.29442  0.62387  0.56789  Biso   1.000  Hf
  Hf25     1.0000 0.28859  0.12584  0.06249  Biso   1.000  Hf
  Hf26     1.0000 0.27660  0.61878  0.06695  Biso   1.000  Hf
  Hf27     1.0000 0.23439  0.37799  0.58101  Biso   1.000  Hf
  Hf28     1.0000 0.24813  0.86114  0.56869  Biso   1.000  Hf
  Hf29     1.0000 0.22637  0.37379  0.08560  Biso   1.000  Hf
  Hf30     1.0000 0.23756  0.86952  0.04558  Biso   1.000  Hf
  Hf31     1.0000 0.54706  0.16521  0.34566  Biso   1.000  Hf
  Hf32     1.0000 0.53432  0.66686  0.30696  Biso   1.000  Hf
  Hf33     1.0000 0.54612  0.08826  0.84500  Biso   1.000  Hf
  Hf34     1.0000 0.55080  0.56720  0.82824  Biso   1.000  Hf
  Hf35     1.0000 0.96841  0.43328  0.32424  Biso   1.000  Hf
  Hf36     1.0000 0.89778  0.92227  0.35824  Biso   1.000  Hf
  Hf37     1.0000 0.97681  0.33755  0.82725  Biso   1.000  Hf
  Hf38     1.0000 0.98674  0.83628  0.83354  Biso   1.000  Hf
  Hf39     1.0000 0.77869  0.13164  0.99172  Biso   1.000  Hf
  Hf40     1.0000 0.79799  0.62001  0.92685  Biso   1.000  Hf
  Hf41     1.0000 0.80997  0.15414  0.50077  Biso   1.000  Hf
  Hf42     1.0000 0.78465  0.62946  0.41627  Biso   1.000  Hf
  Hf43     1.0000 0.73817  0.37836  0.92302  Biso   1.000  Hf
  Hf44     1.0000 0.75439  0.88687  0.97310  Biso   1.000  Hf
  Hf45     1.0000 0.72590  0.38348  0.42570  Biso   1.000  Hf
  Hf46     1.0000 0.76044  0.91330  0.44011  Biso   1.000  Hf
