data_image0
_cell_length_a       10.1542
_cell_length_b       5.20711
_cell_length_c       10.5079
_cell_angle_alpha    90
_cell_angle_beta     90
_cell_angle_gamma    90

_symmetry_space_group_name_H-M    "P 1"
_symmetry_int_tables_number       1

loop_
  _symmetry_equiv_pos_as_xyz
  'x, y, z'

loop_
  _atom_site_label
  _atom_site_occupancy
  _atom_site_fract_x
  _atom_site_fract_y
  _atom_site_fract_z
  _atom_site_thermal_displace_type
  _atom_site_B_iso_or_equiv
  _atom_site_type_symbol
  La1      1.0000 0.13170  0.01781  0.15976  Biso   1.000  La
  Hf1      1.0000 0.13779  0.04066  0.66804  Biso   1.000  Hf
  Hf2      1.0000 0.13682  0.45312  0.42392  Biso   1.000  Hf
  Hf3      1.0000 0.13703  0.46173  0.91244  Biso   1.000  Hf
  Hf4      1.0000 0.35690  0.52278  0.17193  Biso   1.000  Hf
  Hf5      1.0000 0.36025  0.54220  0.66797  Biso   1.000  Hf
  Hf6      1.0000 0.35513  0.95428  0.42037  Biso   1.000  Hf
  Hf7      1.0000 0.35374  0.96400  0.90816  Biso   1.000  Hf
  La2      1.0000 0.63175  0.01789  0.09020  Biso   1.000  La
  Hf8      1.0000 0.63782  0.04070  0.58197  Biso   1.000  Hf
  Hf9      1.0000 0.63703  0.46187  0.33756  Biso   1.000  Hf
  Hf10     1.0000 0.63678  0.45310  0.82606  Biso   1.000  Hf
  Hf11     1.0000 0.85695  0.52288  0.07809  Biso   1.000  Hf
  Hf12     1.0000 0.86025  0.54218  0.58203  Biso   1.000  Hf
  Hf13     1.0000 0.85379  0.96403  0.34182  Biso   1.000  Hf
  Hf14     1.0000 0.85511  0.95415  0.82965  Biso   1.000  Hf
  Hf15     1.0000 0.03973  0.39604  0.08754  Biso   1.000  Hf
  Hf16     1.0000 0.03421  0.34608  0.59438  Biso   1.000  Hf
  Hf17     1.0000 0.02932  0.15883  0.35339  Biso   1.000  Hf
  Hf18     1.0000 0.03685  0.15207  0.84021  Biso   1.000  Hf
  Hf19     1.0000 0.42489  0.86074  0.09195  Biso   1.000  Hf
  Hf20     1.0000 0.45968  0.84393  0.58751  Biso   1.000  Hf
  Hf21     1.0000 0.46721  0.67079  0.34003  Biso   1.000  Hf
  Hf22     1.0000 0.46307  0.66134  0.83351  Biso   1.000  Hf
  Hf23     1.0000 0.28129  0.24354  0.29966  Biso   1.000  Hf
  Hf24     1.0000 0.27272  0.25060  0.78651  Biso   1.000  Hf
  Hf25     1.0000 0.28117  0.25824  0.03025  Biso   1.000  Hf
  Hf26     1.0000 0.27380  0.25071  0.54341  Biso   1.000  Hf
  Hf27     1.0000 0.22779  0.72147  0.30027  Biso   1.000  Hf
  Hf28     1.0000 0.22066  0.75030  0.78652  Biso   1.000  Hf
  Hf29     1.0000 0.23321  0.72577  0.02742  Biso   1.000  Hf
  Hf30     1.0000 0.22069  0.75198  0.54425  Biso   1.000  Hf
  Hf31     1.0000 0.53961  0.39587  0.16255  Biso   1.000  Hf
  Hf32     1.0000 0.53417  0.34609  0.65567  Biso   1.000  Hf
  Hf33     1.0000 0.53682  0.15228  0.40986  Biso   1.000  Hf
  Hf34     1.0000 0.52928  0.15884  0.89663  Biso   1.000  Hf
  Hf35     1.0000 0.92481  0.86095  0.15792  Biso   1.000  Hf
  Hf36     1.0000 0.95961  0.84404  0.66248  Biso   1.000  Hf
  Hf37     1.0000 0.96311  0.66145  0.41649  Biso   1.000  Hf
  Hf38     1.0000 0.96713  0.67061  0.90995  Biso   1.000  Hf
  Hf39     1.0000 0.78121  0.24353  0.95030  Biso   1.000  Hf
  Hf40     1.0000 0.77274  0.25072  0.46343  Biso   1.000  Hf
  Hf41     1.0000 0.78111  0.25826  0.21971  Biso   1.000  Hf
  Hf42     1.0000 0.77379  0.25074  0.70659  Biso   1.000  Hf
  Hf43     1.0000 0.72772  0.72141  0.94977  Biso   1.000  Hf
  Hf44     1.0000 0.72068  0.75051  0.46351  Biso   1.000  Hf
  Hf45     1.0000 0.73316  0.72576  0.22261  Biso   1.000  Hf
  Hf46     1.0000 0.72067  0.75201  0.70575  Biso   1.000  Hf
