data_image0
_cell_length_a       10.1148
_cell_length_b       10.541
_cell_length_c       5.05649
_cell_angle_alpha    90
_cell_angle_beta     90
_cell_angle_gamma    90

_symmetry_space_group_name_H-M    "P 1"
_symmetry_int_tables_number       1

loop_
  _symmetry_equiv_pos_as_xyz
  'x, y, z'

loop_
  _atom_site_label
  _atom_site_occupancy
  _atom_site_fract_x
  _atom_site_fract_y
  _atom_site_fract_z
  _atom_site_thermal_displace_type
  _atom_site_B_iso_or_equiv
  _atom_site_type_symbol
  La1      1.0000 0.12078  0.00926  0.24954  Biso   1.000  La
  Hf1      1.0000 0.13478  0.51767  0.25339  Biso   1.000  Hf
  Hf2      1.0000 0.64121  0.01836  0.25637  Biso   1.000  Hf
  Hf3      1.0000 0.63282  0.51516  0.25720  Biso   1.000  Hf
  Hf4      1.0000 0.13191  0.24233  0.74637  Biso   1.000  Hf
  Hf5      1.0000 0.13677  0.72923  0.75814  Biso   1.000  Hf
  Hf6      1.0000 0.63803  0.23748  0.75258  Biso   1.000  Hf
  Hf7      1.0000 0.63894  0.72680  0.75412  Biso   1.000  Hf
  Hf8      1.0000 0.36322  0.27051  0.25816  Biso   1.000  Hf
  Hf9      1.0000 0.36809  0.75742  0.24642  Biso   1.000  Hf
  Hf10     1.0000 0.86102  0.27295  0.25410  Biso   1.000  Hf
  Hf11     1.0000 0.86195  0.76225  0.25259  Biso   1.000  Hf
  Hf12     1.0000 0.36525  0.48207  0.75342  Biso   1.000  Hf
  La2      1.0000 0.37917  0.99053  0.74971  Biso   1.000  La
  Hf13     1.0000 0.86719  0.48458  0.75716  Biso   1.000  Hf
  Hf14     1.0000 0.85878  0.98135  0.75633  Biso   1.000  Hf
  Hf15     1.0000 0.02806  0.20736  0.39239  Biso   1.000  Hf
  Hf16     1.0000 0.03506  0.68631  0.38988  Biso   1.000  Hf
  Hf17     1.0000 0.53221  0.17933  0.40225  Biso   1.000  Hf
  Hf18     1.0000 0.53686  0.67667  0.39795  Biso   1.000  Hf
  Hf19     1.0000 0.03468  0.06862  0.81239  Biso   1.000  Hf
  Hf20     1.0000 0.03352  0.56840  0.89479  Biso   1.000  Hf
  Hf21     1.0000 0.56968  0.06988  0.89324  Biso   1.000  Hf
  Hf22     1.0000 0.53702  0.55771  0.89532  Biso   1.000  Hf
  Hf23     1.0000 0.46648  0.43133  0.39482  Biso   1.000  Hf
  Hf24     1.0000 0.46530  0.93113  0.31245  Biso   1.000  Hf
  Hf25     1.0000 0.96298  0.44203  0.39530  Biso   1.000  Hf
  Hf26     1.0000 0.93032  0.92983  0.39323  Biso   1.000  Hf
  Hf27     1.0000 0.46493  0.31341  0.88987  Biso   1.000  Hf
  Hf28     1.0000 0.47192  0.79240  0.89244  Biso   1.000  Hf
  Hf29     1.0000 0.96313  0.32307  0.89796  Biso   1.000  Hf
  Hf30     1.0000 0.96780  0.82040  0.90225  Biso   1.000  Hf
  Hf31     1.0000 0.26815  0.14123  0.49882  Biso   1.000  Hf
  Hf32     1.0000 0.26909  0.61195  0.50130  Biso   1.000  Hf
  Hf33     1.0000 0.76947  0.12322  0.51023  Biso   1.000  Hf
  Hf34     1.0000 0.77178  0.61623  0.50042  Biso   1.000  Hf
  Hf35     1.0000 0.26166  0.15039  0.00258  Biso   1.000  Hf
  Hf36     1.0000 0.27219  0.62412  0.00032  Biso   1.000  Hf
  Hf37     1.0000 0.78431  0.13293  0.01257  Biso   1.000  Hf
  Hf38     1.0000 0.77016  0.62812  0.00154  Biso   1.000  Hf
  Hf39     1.0000 0.23092  0.38780  0.00129  Biso   1.000  Hf
  Hf40     1.0000 0.23182  0.85851  0.99885  Biso   1.000  Hf
  Hf41     1.0000 0.72824  0.38352  0.00043  Biso   1.000  Hf
  Hf42     1.0000 0.73052  0.87651  0.01020  Biso   1.000  Hf
  Hf43     1.0000 0.22784  0.37562  0.50031  Biso   1.000  Hf
  Hf44     1.0000 0.23832  0.84939  0.50258  Biso   1.000  Hf
  Hf45     1.0000 0.72983  0.37163  0.50155  Biso   1.000  Hf
  Hf46     1.0000 0.71568  0.86679  0.51255  Biso   1.000  Hf
