data_image0
_cell_length_a       5.07576
_cell_length_b       10.3513
_cell_length_c       10.1498
_cell_angle_alpha    90
_cell_angle_beta     90
_cell_angle_gamma    90

_symmetry_space_group_name_H-M    "P 1"
_symmetry_int_tables_number       1

loop_
  _symmetry_equiv_pos_as_xyz
  'x, y, z'

loop_
  _atom_site_label
  _atom_site_occupancy
  _atom_site_fract_x
  _atom_site_fract_y
  _atom_site_fract_z
  _atom_site_thermal_displace_type
  _atom_site_B_iso_or_equiv
  _atom_site_type_symbol
  La1      1.0000 0.25479  0.00038  0.12495  Biso   1.000  La
  La2      1.0000 0.25469  0.00038  0.62494  Biso   1.000  La
  Hf1      1.0000 0.25471  0.50034  0.12492  Biso   1.000  Hf
  Hf2      1.0000 0.25463  0.50038  0.62495  Biso   1.000  Hf
  Hf3      1.0000 0.25483  0.25625  0.37493  Biso   1.000  Hf
  Hf4      1.0000 0.25477  0.25625  0.87492  Biso   1.000  Hf
  Hf5      1.0000 0.25479  0.74453  0.37496  Biso   1.000  Hf
  Hf6      1.0000 0.25475  0.74456  0.87501  Biso   1.000  Hf
  Hf7      1.0000 0.75480  0.25625  0.12494  Biso   1.000  Hf
  Hf8      1.0000 0.75469  0.25624  0.62491  Biso   1.000  Hf
  Hf9      1.0000 0.75481  0.74449  0.12499  Biso   1.000  Hf
  Hf10     1.0000 0.75471  0.74451  0.62495  Biso   1.000  Hf
  Hf11     1.0000 0.75475  0.00044  0.37492  Biso   1.000  Hf
  Hf12     1.0000 0.75469  0.00045  0.87492  Biso   1.000  Hf
  Hf13     1.0000 0.75471  0.50045  0.37495  Biso   1.000  Hf
  Hf14     1.0000 0.75456  0.50046  0.87493  Biso   1.000  Hf
  Hf15     1.0000 0.01250  0.15617  0.00377  Biso   1.000  Hf
  Hf16     1.0000 0.01237  0.15617  0.50376  Biso   1.000  Hf
  Hf17     1.0000 0.02388  0.64335  0.00949  Biso   1.000  Hf
  Hf18     1.0000 0.02390  0.64338  0.50951  Biso   1.000  Hf
  Hf19     1.0000 0.97750  0.11736  0.26356  Biso   1.000  Hf
  Hf20     1.0000 0.97754  0.11738  0.76359  Biso   1.000  Hf
  Hf21     1.0000 0.99439  0.60196  0.25507  Biso   1.000  Hf
  Hf22     1.0000 0.99430  0.60196  0.75508  Biso   1.000  Hf
  Hf23     1.0000 0.02416  0.35734  0.24029  Biso   1.000  Hf
  Hf24     1.0000 0.02403  0.35733  0.74026  Biso   1.000  Hf
  Hf25     1.0000 0.01254  0.84459  0.24607  Biso   1.000  Hf
  Hf26     1.0000 0.01254  0.84456  0.74605  Biso   1.000  Hf
  Hf27     1.0000 0.99416  0.39881  0.99472  Biso   1.000  Hf
  Hf28     1.0000 0.99431  0.39873  0.49471  Biso   1.000  Hf
  Hf29     1.0000 0.97750  0.88344  0.98627  Biso   1.000  Hf
  Hf30     1.0000 0.97747  0.88339  0.48628  Biso   1.000  Hf
  Hf31     1.0000 0.49719  0.15612  0.24613  Biso   1.000  Hf
  Hf32     1.0000 0.49719  0.15611  0.74614  Biso   1.000  Hf
  Hf33     1.0000 0.48567  0.64334  0.24042  Biso   1.000  Hf
  Hf34     1.0000 0.48555  0.64336  0.74042  Biso   1.000  Hf
  Hf35     1.0000 0.53200  0.11740  0.98636  Biso   1.000  Hf
  Hf36     1.0000 0.53195  0.11736  0.48632  Biso   1.000  Hf
  Hf37     1.0000 0.51496  0.60203  0.99480  Biso   1.000  Hf
  Hf38     1.0000 0.51505  0.60199  0.49480  Biso   1.000  Hf
  Hf39     1.0000 0.48555  0.35738  0.00954  Biso   1.000  Hf
  Hf40     1.0000 0.48554  0.35741  0.50952  Biso   1.000  Hf
  Hf41     1.0000 0.49721  0.84458  0.00382  Biso   1.000  Hf
  Hf42     1.0000 0.49708  0.84458  0.50381  Biso   1.000  Hf
  Hf43     1.0000 0.51531  0.39874  0.25511  Biso   1.000  Hf
  Hf44     1.0000 0.51514  0.39873  0.75513  Biso   1.000  Hf
  Hf45     1.0000 0.53214  0.88339  0.26359  Biso   1.000  Hf
  Hf46     1.0000 0.53212  0.88341  0.76360  Biso   1.000  Hf
