data_image0
_cell_length_a       10.2599
_cell_length_b       5.20647
_cell_length_c       10.4529
_cell_angle_alpha    90
_cell_angle_beta     80
_cell_angle_gamma    90

_symmetry_space_group_name_H-M    "P 1"
_symmetry_int_tables_number       1

loop_
  _symmetry_equiv_pos_as_xyz
  'x, y, z'

loop_
  _atom_site_label
  _atom_site_occupancy
  _atom_site_fract_x
  _atom_site_fract_y
  _atom_site_fract_z
  _atom_site_thermal_displace_type
  _atom_site_B_iso_or_equiv
  _atom_site_type_symbol
  La1      1.0000 0.12277  0.01782  0.13574  Biso   1.000  La
  La2      1.0000 0.10777  0.01734  0.63810  Biso   1.000  La
  Hf1      1.0000 0.63737  0.03548  0.14981  Biso   1.000  Hf
  Hf2      1.0000 0.62240  0.03499  0.65218  Biso   1.000  Hf
  Hf3      1.0000 0.12686  0.45935  0.39338  Biso   1.000  Hf
  Hf4      1.0000 0.11187  0.45886  0.89577  Biso   1.000  Hf
  Hf5      1.0000 0.62354  0.45462  0.40055  Biso   1.000  Hf
  Hf6      1.0000 0.60855  0.45411  0.90289  Biso   1.000  Hf
  Hf7      1.0000 0.35860  0.52785  0.10161  Biso   1.000  Hf
  Hf8      1.0000 0.34363  0.52734  0.60395  Biso   1.000  Hf
  Hf9      1.0000 0.85335  0.53534  0.10557  Biso   1.000  Hf
  Hf10     1.0000 0.83837  0.53482  0.60786  Biso   1.000  Hf
  Hf11     1.0000 0.34802  0.95377  0.34957  Biso   1.000  Hf
  Hf12     1.0000 0.33304  0.95326  0.85190  Biso   1.000  Hf
  Hf13     1.0000 0.83792  0.95930  0.36604  Biso   1.000  Hf
  Hf14     1.0000 0.82295  0.95879  0.86841  Biso   1.000  Hf
  Hf15     1.0000 0.03989  0.42381  0.09136  Biso   1.000  Hf
  Hf16     1.0000 0.02489  0.42332  0.59366  Biso   1.000  Hf
  Hf17     1.0000 0.53280  0.32801  0.08071  Biso   1.000  Hf
  Hf18     1.0000 0.51782  0.32751  0.58304  Biso   1.000  Hf
  Hf19     1.0000 0.01966  0.14757  0.35809  Biso   1.000  Hf
  Hf20     1.0000 0.00466  0.14714  0.86043  Biso   1.000  Hf
  Hf21     1.0000 0.52808  0.15786  0.33068  Biso   1.000  Hf
  Hf22     1.0000 0.51309  0.15735  0.83303  Biso   1.000  Hf
  Hf23     1.0000 0.45839  0.83095  0.16782  Biso   1.000  Hf
  Hf24     1.0000 0.44340  0.83045  0.67017  Biso   1.000  Hf
  Hf25     1.0000 0.90620  0.88118  0.16898  Biso   1.000  Hf
  Hf26     1.0000 0.89122  0.88063  0.67135  Biso   1.000  Hf
  Hf27     1.0000 0.45727  0.66432  0.42015  Biso   1.000  Hf
  Hf28     1.0000 0.44230  0.66386  0.92249  Biso   1.000  Hf
  Hf29     1.0000 0.94455  0.65448  0.41323  Biso   1.000  Hf
  Hf30     1.0000 0.92958  0.65403  0.91559  Biso   1.000  Hf
  Hf31     1.0000 0.27338  0.25230  0.24154  Biso   1.000  Hf
  Hf32     1.0000 0.25841  0.25176  0.74388  Biso   1.000  Hf
  Hf33     1.0000 0.76565  0.27002  0.24853  Biso   1.000  Hf
  Hf34     1.0000 0.75068  0.26956  0.75086  Biso   1.000  Hf
  Hf35     1.0000 0.26710  0.24498  0.48171  Biso   1.000  Hf
  Hf36     1.0000 0.25213  0.24447  0.98406  Biso   1.000  Hf
  Hf37     1.0000 0.75734  0.23894  0.49935  Biso   1.000  Hf
  Hf38     1.0000 0.74237  0.23850  0.00170  Biso   1.000  Hf
  Hf39     1.0000 0.20996  0.73676  0.99700  Biso   1.000  Hf
  Hf40     1.0000 0.22493  0.73726  0.49465  Biso   1.000  Hf
  Hf41     1.0000 0.71898  0.75367  0.01277  Biso   1.000  Hf
  Hf42     1.0000 0.70399  0.75325  0.51511  Biso   1.000  Hf
  Hf43     1.0000 0.22273  0.71798  0.25589  Biso   1.000  Hf
  Hf44     1.0000 0.20775  0.71742  0.75824  Biso   1.000  Hf
  Hf45     1.0000 0.69896  0.74377  0.26921  Biso   1.000  Hf
  Hf46     1.0000 0.68397  0.74330  0.77157  Biso   1.000  Hf
