data_image0
_cell_length_a       10.1411
_cell_length_b       5.22675
_cell_length_c       10.169
_cell_angle_alpha    90
_cell_angle_beta     90
_cell_angle_gamma    90

_symmetry_space_group_name_H-M    "P 1"
_symmetry_int_tables_number       1

loop_
  _symmetry_equiv_pos_as_xyz
  'x, y, z'

loop_
  _atom_site_label
  _atom_site_occupancy
  _atom_site_fract_x
  _atom_site_fract_y
  _atom_site_fract_z
  _atom_site_thermal_displace_type
  _atom_site_B_iso_or_equiv
  _atom_site_type_symbol
  La1      1.0000 0.11726  0.00546  0.11881  Biso   1.000  La
  Hf1      1.0000 0.13537  0.03255  0.62409  Biso   1.000  Hf
  Hf2      1.0000 0.63651  0.03219  0.12285  Biso   1.000  Hf
  Hf3      1.0000 0.63791  0.02999  0.63451  Biso   1.000  Hf
  Hf4      1.0000 0.13027  0.47571  0.38067  Biso   1.000  Hf
  Hf5      1.0000 0.13422  0.47056  0.87019  Biso   1.000  Hf
  Hf6      1.0000 0.63643  0.46589  0.38392  Biso   1.000  Hf
  Hf7      1.0000 0.63324  0.46238  0.87313  Biso   1.000  Hf
  Hf8      1.0000 0.36572  0.51673  0.11870  Biso   1.000  Hf
  Hf9      1.0000 0.36224  0.53195  0.62733  Biso   1.000  Hf
  Hf10     1.0000 0.85243  0.53594  0.12981  Biso   1.000  Hf
  Hf11     1.0000 0.86803  0.53757  0.62767  Biso   1.000  Hf
  La2      1.0000 0.37414  0.98982  0.36693  Biso   1.000  La
  Hf12     1.0000 0.36483  0.96297  0.87346  Biso   1.000  Hf
  Hf13     1.0000 0.85397  0.97317  0.38284  Biso   1.000  Hf
  Hf14     1.0000 0.85988  0.96447  0.87503  Biso   1.000  Hf
  Hf15     1.0000 0.02051  0.41616  0.20541  Biso   1.000  Hf
  Hf16     1.0000 0.03731  0.37722  0.68760  Biso   1.000  Hf
  Hf17     1.0000 0.52494  0.33770  0.20748  Biso   1.000  Hf
  Hf18     1.0000 0.53453  0.36161  0.69591  Biso   1.000  Hf
  Hf19     1.0000 0.03189  0.13067  0.43999  Biso   1.000  Hf
  Hf20     1.0000 0.02337  0.16420  0.92228  Biso   1.000  Hf
  Hf21     1.0000 0.56721  0.11816  0.45308  Biso   1.000  Hf
  Hf22     1.0000 0.53761  0.13014  0.94241  Biso   1.000  Hf
  Hf23     1.0000 0.46570  0.84524  0.16151  Biso   1.000  Hf
  Hf24     1.0000 0.46302  0.86706  0.69239  Biso   1.000  Hf
  Hf25     1.0000 0.91728  0.88843  0.19659  Biso   1.000  Hf
  Hf26     1.0000 0.96137  0.87127  0.69752  Biso   1.000  Hf
  Hf27     1.0000 0.46555  0.59338  0.45403  Biso   1.000  Hf
  Hf28     1.0000 0.46546  0.62284  0.93263  Biso   1.000  Hf
  Hf29     1.0000 0.95812  0.64382  0.44685  Biso   1.000  Hf
  Hf30     1.0000 0.97107  0.65976  0.95793  Biso   1.000  Hf
  Hf31     1.0000 0.25770  0.26662  0.24505  Biso   1.000  Hf
  Hf32     1.0000 0.27005  0.23364  0.74829  Biso   1.000  Hf
  Hf33     1.0000 0.76291  0.24596  0.25466  Biso   1.000  Hf
  Hf34     1.0000 0.77134  0.23669  0.75229  Biso   1.000  Hf
  Hf35     1.0000 0.25634  0.28022  0.50771  Biso   1.000  Hf
  Hf36     1.0000 0.27170  0.25759  0.98844  Biso   1.000  Hf
  Hf37     1.0000 0.77810  0.26815  0.50550  Biso   1.000  Hf
  Hf38     1.0000 0.76840  0.26428  0.00135  Biso   1.000  Hf
  Hf39     1.0000 0.21817  0.75983  0.50446  Biso   1.000  Hf
  Hf40     1.0000 0.23864  0.73993  0.98858  Biso   1.000  Hf
  Hf41     1.0000 0.72849  0.76012  0.50704  Biso   1.000  Hf
  Hf42     1.0000 0.72419  0.75999  0.99861  Biso   1.000  Hf
  Hf43     1.0000 0.23705  0.70712  0.24937  Biso   1.000  Hf
  Hf44     1.0000 0.22852  0.74137  0.74706  Biso   1.000  Hf
  Hf45     1.0000 0.70892  0.73745  0.25402  Biso   1.000  Hf
  Hf46     1.0000 0.73053  0.73199  0.75204  Biso   1.000  Hf
