data_image0
_cell_length_a       10.368
_cell_length_b       5.176
_cell_length_c       10.5097
_cell_angle_alpha    90
_cell_angle_beta     80
_cell_angle_gamma    90

_symmetry_space_group_name_H-M    "P 1"
_symmetry_int_tables_number       1

loop_
  _symmetry_equiv_pos_as_xyz
  'x, y, z'

loop_
  _atom_site_label
  _atom_site_occupancy
  _atom_site_fract_x
  _atom_site_fract_y
  _atom_site_fract_z
  _atom_site_thermal_displace_type
  _atom_site_B_iso_or_equiv
  _atom_site_type_symbol
  La1      1.0000 0.12117  0.02516  0.13161  Biso   1.000  La
  Hf1      1.0000 0.11762  0.04620  0.64385  Biso   1.000  Hf
  Hf2      1.0000 0.61794  0.04742  0.15374  Biso   1.000  Hf
  Hf3      1.0000 0.61749  0.05140  0.65246  Biso   1.000  Hf
  Hf4      1.0000 0.11590  0.46093  0.39776  Biso   1.000  Hf
  Hf5      1.0000 0.13636  0.46668  0.87859  Biso   1.000  Hf
  Hf6      1.0000 0.61076  0.46130  0.40696  Biso   1.000  Hf
  Hf7      1.0000 0.59658  0.48138  0.90057  Biso   1.000  Hf
  Hf8      1.0000 0.35608  0.53578  0.10583  Biso   1.000  Hf
  Hf9      1.0000 0.34190  0.55585  0.59945  Biso   1.000  Hf
  Hf10     1.0000 0.81630  0.55046  0.12781  Biso   1.000  Hf
  Hf11     1.0000 0.83676  0.55623  0.60866  Biso   1.000  Hf
  Hf12     1.0000 0.33517  0.96576  0.35394  Biso   1.000  Hf
  Hf13     1.0000 0.33473  0.96973  0.85267  Biso   1.000  Hf
  Hf14     1.0000 0.83504  0.97095  0.36256  Biso   1.000  Hf
  La2      1.0000 0.83150  0.99199  0.87479  Biso   1.000  La
  Hf15     1.0000 0.01332  0.41884  0.05203  Biso   1.000  Hf
  Hf16     1.0000 0.00847  0.33248  0.58313  Biso   1.000  Hf
  Hf17     1.0000 0.52285  0.33415  0.08055  Biso   1.000  Hf
  Hf18     1.0000 0.51074  0.34442  0.58433  Biso   1.000  Hf
  Hf19     1.0000 0.00335  0.19752  0.32924  Biso   1.000  Hf
  Hf20     1.0000 0.04240  0.14853  0.83730  Biso   1.000  Hf
  Hf21     1.0000 0.51174  0.17120  0.33360  Biso   1.000  Hf
  Hf22     1.0000 0.50765  0.17556  0.83354  Biso   1.000  Hf
  Hf23     1.0000 0.44501  0.84160  0.17287  Biso   1.000  Hf
  Hf24     1.0000 0.44092  0.84595  0.67280  Biso   1.000  Hf
  Hf25     1.0000 0.91026  0.86862  0.16911  Biso   1.000  Hf
  Hf26     1.0000 0.94931  0.81963  0.67717  Biso   1.000  Hf
  Hf27     1.0000 0.44193  0.67274  0.42208  Biso   1.000  Hf
  Hf28     1.0000 0.42981  0.68300  0.92586  Biso   1.000  Hf
  Hf29     1.0000 0.94419  0.68467  0.42328  Biso   1.000  Hf
  Hf30     1.0000 0.93934  0.59831  0.95438  Biso   1.000  Hf
  Hf31     1.0000 0.26315  0.26423  0.24394  Biso   1.000  Hf
  Hf32     1.0000 0.26267  0.26801  0.73129  Biso   1.000  Hf
  Hf33     1.0000 0.74695  0.26674  0.25524  Biso   1.000  Hf
  Hf34     1.0000 0.74259  0.28672  0.74541  Biso   1.000  Hf
  Hf35     1.0000 0.24976  0.25007  0.49018  Biso   1.000  Hf
  Hf36     1.0000 0.24813  0.26228  0.98250  Biso   1.000  Hf
  Hf37     1.0000 0.75085  0.25066  0.49813  Biso   1.000  Hf
  Hf38     1.0000 0.75630  0.26593  0.00805  Biso   1.000  Hf
  Hf39     1.0000 0.19637  0.75123  0.99835  Biso   1.000  Hf
  Hf40     1.0000 0.20181  0.76649  0.50828  Biso   1.000  Hf
  Hf41     1.0000 0.70453  0.75488  0.02392  Biso   1.000  Hf
  Hf42     1.0000 0.70290  0.76707  0.51623  Biso   1.000  Hf
  Hf43     1.0000 0.21008  0.73042  0.26100  Biso   1.000  Hf
  Hf44     1.0000 0.20571  0.75041  0.75117  Biso   1.000  Hf
  Hf45     1.0000 0.68999  0.74914  0.27512  Biso   1.000  Hf
  Hf46     1.0000 0.68951  0.75293  0.76247  Biso   1.000  Hf
