data_image0
_cell_length_a       5.06295
_cell_length_b       10.5104
_cell_length_c       10.1292
_cell_angle_alpha    90
_cell_angle_beta     90
_cell_angle_gamma    90

_symmetry_space_group_name_H-M    "P 1"
_symmetry_int_tables_number       1

loop_
  _symmetry_equiv_pos_as_xyz
  'x, y, z'

loop_
  _atom_site_label
  _atom_site_occupancy
  _atom_site_fract_x
  _atom_site_fract_y
  _atom_site_fract_z
  _atom_site_thermal_displace_type
  _atom_site_B_iso_or_equiv
  _atom_site_type_symbol
  La1      1.0000 0.24333  0.00541  0.11991  Biso   1.000  La
  La2      1.0000 0.22951  0.00020  0.61994  Biso   1.000  La
  Hf1      1.0000 0.26620  0.51389  0.12648  Biso   1.000  Hf
  Hf2      1.0000 0.25237  0.50869  0.62639  Biso   1.000  Hf
  Hf3      1.0000 0.26072  0.23476  0.37053  Biso   1.000  Hf
  Hf4      1.0000 0.24695  0.22957  0.87043  Biso   1.000  Hf
  Hf5      1.0000 0.26666  0.72498  0.38016  Biso   1.000  Hf
  Hf6      1.0000 0.25290  0.71973  0.88009  Biso   1.000  Hf
  Hf7      1.0000 0.72169  0.26908  0.12532  Biso   1.000  Hf
  Hf8      1.0000 0.70786  0.26386  0.62520  Biso   1.000  Hf
  Hf9      1.0000 0.73132  0.75722  0.12745  Biso   1.000  Hf
  Hf10     1.0000 0.71749  0.75199  0.62732  Biso   1.000  Hf
  Hf11     1.0000 0.72460  0.47838  0.37801  Biso   1.000  Hf
  Hf12     1.0000 0.71079  0.47314  0.87795  Biso   1.000  Hf
  Hf13     1.0000 0.72526  0.97832  0.37280  Biso   1.000  Hf
  Hf14     1.0000 0.71150  0.97308  0.87266  Biso   1.000  Hf
  Hf15     1.0000 0.07148  0.20526  0.18821  Biso   1.000  Hf
  Hf16     1.0000 0.05777  0.20011  0.68808  Biso   1.000  Hf
  Hf17     1.0000 0.07135  0.68031  0.19973  Biso   1.000  Hf
  Hf18     1.0000 0.05753  0.67512  0.69967  Biso   1.000  Hf
  Hf19     1.0000 0.06675  0.06616  0.40542  Biso   1.000  Hf
  Hf20     1.0000 0.05309  0.06090  0.90514  Biso   1.000  Hf
  Hf21     1.0000 0.05466  0.56421  0.45003  Biso   1.000  Hf
  Hf22     1.0000 0.04091  0.55897  0.94993  Biso   1.000  Hf
  Hf23     1.0000 0.92509  0.43696  0.19735  Biso   1.000  Hf
  Hf24     1.0000 0.91131  0.43175  0.69727  Biso   1.000  Hf
  Hf25     1.0000 0.87386  0.92726  0.19674  Biso   1.000  Hf
  Hf26     1.0000 0.85978  0.92211  0.69651  Biso   1.000  Hf
  Hf27     1.0000 0.92304  0.31625  0.44550  Biso   1.000  Hf
  Hf28     1.0000 0.90929  0.31101  0.94545  Biso   1.000  Hf
  Hf29     1.0000 0.95713  0.82145  0.45896  Biso   1.000  Hf
  Hf30     1.0000 0.94342  0.81627  0.95887  Biso   1.000  Hf
  Hf31     1.0000 0.55820  0.12812  0.25492  Biso   1.000  Hf
  Hf32     1.0000 0.54447  0.12294  0.75485  Biso   1.000  Hf
  Hf33     1.0000 0.53727  0.60934  0.25003  Biso   1.000  Hf
  Hf34     1.0000 0.52348  0.60410  0.74994  Biso   1.000  Hf
  Hf35     1.0000 0.54231  0.13172  0.49479  Biso   1.000  Hf
  Hf36     1.0000 0.52858  0.12647  0.99471  Biso   1.000  Hf
  Hf37     1.0000 0.52912  0.62112  0.50077  Biso   1.000  Hf
  Hf38     1.0000 0.54306  0.62635  0.00086  Biso   1.000  Hf
  Hf39     1.0000 0.44900  0.37914  0.49917  Biso   1.000  Hf
  Hf40     1.0000 0.43518  0.37389  0.99910  Biso   1.000  Hf
  Hf41     1.0000 0.48468  0.86231  0.49345  Biso   1.000  Hf
  Hf42     1.0000 0.47097  0.85707  0.99339  Biso   1.000  Hf
  Hf43     1.0000 0.45460  0.36956  0.24912  Biso   1.000  Hf
  Hf44     1.0000 0.44083  0.36435  0.74903  Biso   1.000  Hf
  Hf45     1.0000 0.46072  0.84827  0.25519  Biso   1.000  Hf
  Hf46     1.0000 0.44693  0.84302  0.75515  Biso   1.000  Hf
