data_image0
_cell_length_a       10.1755
_cell_length_b       5.22411
_cell_length_c       10.1432
_cell_angle_alpha    90
_cell_angle_beta     90
_cell_angle_gamma    90

_symmetry_space_group_name_H-M    "P 1"
_symmetry_int_tables_number       1

loop_
  _symmetry_equiv_pos_as_xyz
  'x, y, z'

loop_
  _atom_site_label
  _atom_site_occupancy
  _atom_site_fract_x
  _atom_site_fract_y
  _atom_site_fract_z
  _atom_site_thermal_displace_type
  _atom_site_B_iso_or_equiv
  _atom_site_type_symbol
  La1      1.0000 0.12008  0.00196  0.11305  Biso   1.000  La
  Hf1      1.0000 0.12353  0.02438  0.62884  Biso   1.000  Hf
  Hf2      1.0000 0.63525  0.03344  0.12475  Biso   1.000  Hf
  Hf3      1.0000 0.62097  0.02969  0.62917  Biso   1.000  Hf
  La2      1.0000 0.11693  0.47973  0.37788  Biso   1.000  La
  Hf4      1.0000 0.12594  0.46609  0.86885  Biso   1.000  Hf
  Hf5      1.0000 0.62737  0.46178  0.37825  Biso   1.000  Hf
  Hf6      1.0000 0.62407  0.45746  0.87617  Biso   1.000  Hf
  Hf7      1.0000 0.37165  0.52147  0.12354  Biso   1.000  Hf
  Hf8      1.0000 0.35852  0.53025  0.62436  Biso   1.000  Hf
  Hf9      1.0000 0.85448  0.53352  0.12792  Biso   1.000  Hf
  Hf10     1.0000 0.85160  0.52341  0.63011  Biso   1.000  Hf
  Hf11     1.0000 0.36441  0.96848  0.37471  Biso   1.000  Hf
  Hf12     1.0000 0.36050  0.95861  0.87301  Biso   1.000  Hf
  Hf13     1.0000 0.84715  0.95967  0.38646  Biso   1.000  Hf
  Hf14     1.0000 0.85374  0.95553  0.87085  Biso   1.000  Hf
  Hf15     1.0000 0.02527  0.38159  0.17280  Biso   1.000  Hf
  Hf16     1.0000 0.03074  0.37535  0.67624  Biso   1.000  Hf
  Hf17     1.0000 0.53983  0.36327  0.19403  Biso   1.000  Hf
  Hf18     1.0000 0.52516  0.36190  0.69871  Biso   1.000  Hf
  Hf19     1.0000 0.02340  0.07543  0.45060  Biso   1.000  Hf
  Hf20     1.0000 0.02015  0.14570  0.90575  Biso   1.000  Hf
  Hf21     1.0000 0.53069  0.12897  0.44704  Biso   1.000  Hf
  Hf22     1.0000 0.52517  0.12697  0.94610  Biso   1.000  Hf
  Hf23     1.0000 0.47461  0.85999  0.19635  Biso   1.000  Hf
  Hf24     1.0000 0.45790  0.85961  0.69838  Biso   1.000  Hf
  Hf25     1.0000 0.94042  0.84729  0.21664  Biso   1.000  Hf
  Hf26     1.0000 0.95225  0.85498  0.69307  Biso   1.000  Hf
  Hf27     1.0000 0.46131  0.62542  0.44778  Biso   1.000  Hf
  Hf28     1.0000 0.46492  0.63196  0.94691  Biso   1.000  Hf
  Hf29     1.0000 0.91639  0.60687  0.44578  Biso   1.000  Hf
  Hf30     1.0000 0.96349  0.65309  0.95461  Biso   1.000  Hf
  Hf31     1.0000 0.28726  0.23421  0.24651  Biso   1.000  Hf
  Hf32     1.0000 0.26195  0.23283  0.74784  Biso   1.000  Hf
  Hf33     1.0000 0.76607  0.23533  0.25267  Biso   1.000  Hf
  Hf34     1.0000 0.75863  0.22749  0.74968  Biso   1.000  Hf
  Hf35     1.0000 0.27234  0.25279  0.50540  Biso   1.000  Hf
  Hf36     1.0000 0.26359  0.25464  0.98846  Biso   1.000  Hf
  Hf37     1.0000 0.75520  0.25435  0.50553  Biso   1.000  Hf
  Hf38     1.0000 0.75957  0.25233  0.99763  Biso   1.000  Hf
  Hf39     1.0000 0.23787  0.78467  0.50765  Biso   1.000  Hf
  Hf40     1.0000 0.23626  0.73074  0.98628  Biso   1.000  Hf
  Hf41     1.0000 0.70783  0.75624  0.50710  Biso   1.000  Hf
  Hf42     1.0000 0.73488  0.76577  0.00074  Biso   1.000  Hf
  Hf43     1.0000 0.25291  0.72617  0.24786  Biso   1.000  Hf
  Hf44     1.0000 0.22088  0.73204  0.74587  Biso   1.000  Hf
  Hf45     1.0000 0.71473  0.73742  0.25313  Biso   1.000  Hf
  Hf46     1.0000 0.71991  0.72810  0.75355  Biso   1.000  Hf
