data_image0
_cell_length_a       10.1724
_cell_length_b       10.4672
_cell_length_c       5.04664
_cell_angle_alpha    90
_cell_angle_beta     90
_cell_angle_gamma    90

_symmetry_space_group_name_H-M    "P 1"
_symmetry_int_tables_number       1

loop_
  _symmetry_equiv_pos_as_xyz
  'x, y, z'

loop_
  _atom_site_label
  _atom_site_occupancy
  _atom_site_fract_x
  _atom_site_fract_y
  _atom_site_fract_z
  _atom_site_thermal_displace_type
  _atom_site_B_iso_or_equiv
  _atom_site_type_symbol
  La1      1.0000 0.12439  0.99764  0.24513  Biso   1.000  La
  Hf1      1.0000 0.13771  0.51869  0.25228  Biso   1.000  Hf
  Hf2      1.0000 0.62884  0.01105  0.25162  Biso   1.000  Hf
  Hf3      1.0000 0.63355  0.51145  0.25770  Biso   1.000  Hf
  Hf4      1.0000 0.14240  0.23406  0.74767  Biso   1.000  Hf
  Hf5      1.0000 0.13723  0.72869  0.75827  Biso   1.000  Hf
  Hf6      1.0000 0.62775  0.23142  0.75197  Biso   1.000  Hf
  Hf7      1.0000 0.63316  0.72649  0.75944  Biso   1.000  Hf
  Hf8      1.0000 0.36245  0.26444  0.25350  Biso   1.000  Hf
  Hf9      1.0000 0.37245  0.75926  0.25295  Biso   1.000  Hf
  La2      1.0000 0.87585  0.25774  0.25867  Biso   1.000  La
  Hf10     1.0000 0.86142  0.76249  0.25594  Biso   1.000  Hf
  Hf11     1.0000 0.36678  0.48026  0.75453  Biso   1.000  Hf
  Hf12     1.0000 0.37057  0.97739  0.75088  Biso   1.000  Hf
  Hf13     1.0000 0.86406  0.48563  0.75115  Biso   1.000  Hf
  Hf14     1.0000 0.85278  0.97770  0.75727  Biso   1.000  Hf
  Hf15     1.0000 0.07938  0.20894  0.35838  Biso   1.000  Hf
  Hf16     1.0000 0.03932  0.69738  0.39208  Biso   1.000  Hf
  Hf17     1.0000 0.53220  0.18295  0.38772  Biso   1.000  Hf
  Hf18     1.0000 0.53484  0.67600  0.40266  Biso   1.000  Hf
  Hf19     1.0000 0.02177  0.07627  0.82786  Biso   1.000  Hf
  Hf20     1.0000 0.03328  0.56956  0.89719  Biso   1.000  Hf
  Hf21     1.0000 0.52865  0.06440  0.89767  Biso   1.000  Hf
  Hf22     1.0000 0.53311  0.56266  0.89979  Biso   1.000  Hf
  Hf23     1.0000 0.46398  0.43101  0.39203  Biso   1.000  Hf
  Hf24     1.0000 0.46485  0.92916  0.39304  Biso   1.000  Hf
  Hf25     1.0000 0.96537  0.45859  0.39012  Biso   1.000  Hf
  Hf26     1.0000 0.92618  0.94010  0.38502  Biso   1.000  Hf
  Hf27     1.0000 0.46135  0.31410  0.89294  Biso   1.000  Hf
  Hf28     1.0000 0.47403  0.81385  0.90475  Biso   1.000  Hf
  Hf29     1.0000 0.96741  0.32123  0.82376  Biso   1.000  Hf
  Hf30     1.0000 0.97332  0.82358  0.90741  Biso   1.000  Hf
  Hf31     1.0000 0.28773  0.12304  0.51663  Biso   1.000  Hf
  Hf32     1.0000 0.26887  0.61260  0.50322  Biso   1.000  Hf
  Hf33     1.0000 0.74850  0.10640  0.51638  Biso   1.000  Hf
  Hf34     1.0000 0.77003  0.61725  0.49970  Biso   1.000  Hf
  Hf35     1.0000 0.27390  0.12821  0.99356  Biso   1.000  Hf
  Hf36     1.0000 0.27305  0.62836  0.00242  Biso   1.000  Hf
  Hf37     1.0000 0.75488  0.11972  0.99309  Biso   1.000  Hf
  Hf38     1.0000 0.76979  0.63092  0.00173  Biso   1.000  Hf
  Hf39     1.0000 0.23043  0.38389  0.00252  Biso   1.000  Hf
  Hf40     1.0000 0.24458  0.86617  0.98518  Biso   1.000  Hf
  Hf41     1.0000 0.72594  0.38204  0.99561  Biso   1.000  Hf
  Hf42     1.0000 0.72895  0.87461  0.00818  Biso   1.000  Hf
  Hf43     1.0000 0.23454  0.37225  0.50437  Biso   1.000  Hf
  Hf44     1.0000 0.24508  0.85188  0.51011  Biso   1.000  Hf
  Hf45     1.0000 0.71851  0.37492  0.51594  Biso   1.000  Hf
  Hf46     1.0000 0.71988  0.85838  0.50749  Biso   1.000  Hf
