data_image0
_cell_length_a       10.1492
_cell_length_b       5.2137
_cell_length_c       10.5208
_cell_angle_alpha    90
_cell_angle_beta     90
_cell_angle_gamma    90

_symmetry_space_group_name_H-M    "P 1"
_symmetry_int_tables_number       1

loop_
  _symmetry_equiv_pos_as_xyz
  'x, y, z'

loop_
  _atom_site_label
  _atom_site_occupancy
  _atom_site_fract_x
  _atom_site_fract_y
  _atom_site_fract_z
  _atom_site_thermal_displace_type
  _atom_site_B_iso_or_equiv
  _atom_site_type_symbol
  La1      1.0000 0.12937  0.02273  0.15832  Biso   1.000  La
  Hf1      1.0000 0.13995  0.04222  0.67210  Biso   1.000  Hf
  Hf2      1.0000 0.13850  0.45606  0.42310  Biso   1.000  Hf
  Hf3      1.0000 0.13958  0.46590  0.91288  Biso   1.000  Hf
  Hf4      1.0000 0.35945  0.52456  0.15837  Biso   1.000  Hf
  Hf5      1.0000 0.36208  0.54123  0.66927  Biso   1.000  Hf
  Hf6      1.0000 0.35579  0.96700  0.42382  Biso   1.000  Hf
  Hf7      1.0000 0.36752  0.95576  0.91493  Biso   1.000  Hf
  Hf8      1.0000 0.63849  0.04468  0.07690  Biso   1.000  Hf
  Hf9      1.0000 0.63959  0.03638  0.58715  Biso   1.000  Hf
  La2      1.0000 0.62934  0.47795  0.34169  Biso   1.000  La
  Hf10     1.0000 0.63991  0.46006  0.82789  Biso   1.000  Hf
  Hf11     1.0000 0.85580  0.53376  0.07615  Biso   1.000  Hf
  Hf12     1.0000 0.86749  0.54655  0.58505  Biso   1.000  Hf
  Hf13     1.0000 0.85940  0.97624  0.34164  Biso   1.000  Hf
  Hf14     1.0000 0.86206  0.96109  0.83074  Biso   1.000  Hf
  Hf15     1.0000 0.03965  0.40021  0.08612  Biso   1.000  Hf
  Hf16     1.0000 0.03993  0.34887  0.59473  Biso   1.000  Hf
  Hf17     1.0000 0.02828  0.16919  0.35068  Biso   1.000  Hf
  Hf18     1.0000 0.03803  0.15598  0.84261  Biso   1.000  Hf
  Hf19     1.0000 0.46929  0.83180  0.08473  Biso   1.000  Hf
  Hf20     1.0000 0.46512  0.83637  0.59085  Biso   1.000  Hf
  Hf21     1.0000 0.43132  0.65016  0.33569  Biso   1.000  Hf
  Hf22     1.0000 0.46678  0.65473  0.83349  Biso   1.000  Hf
  Hf23     1.0000 0.27934  0.24538  0.29763  Biso   1.000  Hf
  Hf24     1.0000 0.27736  0.24807  0.78933  Biso   1.000  Hf
  Hf25     1.0000 0.28052  0.24756  0.03008  Biso   1.000  Hf
  Hf26     1.0000 0.27625  0.25380  0.54497  Biso   1.000  Hf
  Hf27     1.0000 0.22397  0.72514  0.29427  Biso   1.000  Hf
  Hf28     1.0000 0.22655  0.75060  0.78902  Biso   1.000  Hf
  Hf29     1.0000 0.24248  0.72531  0.02730  Biso   1.000  Hf
  Hf30     1.0000 0.22389  0.75541  0.54458  Biso   1.000  Hf
  Hf31     1.0000 0.52824  0.33163  0.14926  Biso   1.000  Hf
  Hf32     1.0000 0.53799  0.34629  0.65740  Biso   1.000  Hf
  Hf33     1.0000 0.53972  0.10052  0.41387  Biso   1.000  Hf
  Hf34     1.0000 0.53998  0.15344  0.90527  Biso   1.000  Hf
  Hf35     1.0000 0.93128  0.85078  0.16427  Biso   1.000  Hf
  Hf36     1.0000 0.96674  0.84756  0.66653  Biso   1.000  Hf
  Hf37     1.0000 0.96933  0.66897  0.41526  Biso   1.000  Hf
  Hf38     1.0000 0.96513  0.66589  0.90914  Biso   1.000  Hf
  Hf39     1.0000 0.77629  0.24856  0.95505  Biso   1.000  Hf
  Hf40     1.0000 0.78058  0.25311  0.46996  Biso   1.000  Hf
  Hf41     1.0000 0.77928  0.25537  0.20240  Biso   1.000  Hf
  Hf42     1.0000 0.77735  0.25422  0.71071  Biso   1.000  Hf
  Hf43     1.0000 0.72394  0.74692  0.95542  Biso   1.000  Hf
  Hf44     1.0000 0.74247  0.77537  0.47267  Biso   1.000  Hf
  Hf45     1.0000 0.72404  0.77563  0.20573  Biso   1.000  Hf
  Hf46     1.0000 0.72653  0.75171  0.71098  Biso   1.000  Hf
