data_image0
_cell_length_a       10.2126
_cell_length_b       10.3829
_cell_length_c       5.21737
_cell_angle_alpha    90
_cell_angle_beta     90
_cell_angle_gamma    90

_symmetry_space_group_name_H-M    "P 1"
_symmetry_int_tables_number       1

loop_
  _symmetry_equiv_pos_as_xyz
  'x, y, z'

loop_
  _atom_site_label
  _atom_site_occupancy
  _atom_site_fract_x
  _atom_site_fract_y
  _atom_site_fract_z
  _atom_site_thermal_displace_type
  _atom_site_B_iso_or_equiv
  _atom_site_type_symbol
  La1      1.0000 0.12603  0.00339  0.31607  Biso   1.000  La
  Hf1      1.0000 0.13656  0.52376  0.33881  Biso   1.000  Hf
  Hf2      1.0000 0.13846  0.23377  0.81831  Biso   1.000  Hf
  Hf3      1.0000 0.13521  0.72733  0.83900  Biso   1.000  Hf
  Hf4      1.0000 0.35345  0.26843  0.33107  Biso   1.000  Hf
  Hf5      1.0000 0.36574  0.76338  0.33927  Biso   1.000  Hf
  Hf6      1.0000 0.35533  0.47950  0.83660  Biso   1.000  Hf
  Hf7      1.0000 0.36001  0.97503  0.83177  Biso   1.000  Hf
  Hf8      1.0000 0.63308  0.01641  0.17211  Biso   1.000  Hf
  Hf9      1.0000 0.64089  0.51455  0.15844  Biso   1.000  Hf
  Hf10     1.0000 0.62674  0.23120  0.66666  Biso   1.000  Hf
  Hf11     1.0000 0.63592  0.72464  0.66163  Biso   1.000  Hf
  La2      1.0000 0.87292  0.25965  0.18045  Biso   1.000  La
  Hf12     1.0000 0.85986  0.76701  0.16335  Biso   1.000  Hf
  Hf13     1.0000 0.85735  0.48229  0.65939  Biso   1.000  Hf
  Hf14     1.0000 0.84664  0.97754  0.67871  Biso   1.000  Hf
  Hf15     1.0000 0.08116  0.21083  0.19479  Biso   1.000  Hf
  Hf16     1.0000 0.04505  0.69312  0.19946  Biso   1.000  Hf
  Hf17     1.0000 0.01637  0.07997  0.72300  Biso   1.000  Hf
  Hf18     1.0000 0.03447  0.57625  0.69234  Biso   1.000  Hf
  Hf19     1.0000 0.46938  0.41027  0.16168  Biso   1.000  Hf
  Hf20     1.0000 0.47090  0.91082  0.16722  Biso   1.000  Hf
  Hf21     1.0000 0.45712  0.33471  0.66143  Biso   1.000  Hf
  Hf22     1.0000 0.47122  0.83511  0.66009  Biso   1.000  Hf
  Hf23     1.0000 0.27286  0.12562  0.58634  Biso   1.000  Hf
  Hf24     1.0000 0.27347  0.62198  0.58795  Biso   1.000  Hf
  Hf25     1.0000 0.28899  0.12981  0.05992  Biso   1.000  Hf
  Hf26     1.0000 0.27534  0.62061  0.08953  Biso   1.000  Hf
  Hf27     1.0000 0.22090  0.37702  0.57220  Biso   1.000  Hf
  Hf28     1.0000 0.23174  0.86057  0.58952  Biso   1.000  Hf
  Hf29     1.0000 0.22897  0.38275  0.06959  Biso   1.000  Hf
  Hf30     1.0000 0.24758  0.86164  0.06474  Biso   1.000  Hf
  Hf31     1.0000 0.52399  0.16404  0.33532  Biso   1.000  Hf
  Hf32     1.0000 0.53195  0.65613  0.33870  Biso   1.000  Hf
  Hf33     1.0000 0.51913  0.08708  0.84262  Biso   1.000  Hf
  Hf34     1.0000 0.52489  0.58526  0.83921  Biso   1.000  Hf
  Hf35     1.0000 0.95695  0.45391  0.30679  Biso   1.000  Hf
  Hf36     1.0000 0.92217  0.94113  0.30474  Biso   1.000  Hf
  Hf37     1.0000 0.96341  0.32745  0.77059  Biso   1.000  Hf
  Hf38     1.0000 0.96028  0.82747  0.82018  Biso   1.000  Hf
  Hf39     1.0000 0.75162  0.11306  0.91943  Biso   1.000  Hf
  Hf40     1.0000 0.76961  0.62234  0.91552  Biso   1.000  Hf
  Hf41     1.0000 0.74977  0.11516  0.44513  Biso   1.000  Hf
  Hf42     1.0000 0.77368  0.62778  0.41430  Biso   1.000  Hf
  Hf43     1.0000 0.71440  0.37755  0.90310  Biso   1.000  Hf
  Hf44     1.0000 0.71576  0.86816  0.92003  Biso   1.000  Hf
  Hf45     1.0000 0.71398  0.38081  0.42713  Biso   1.000  Hf
  Hf46     1.0000 0.71447  0.86706  0.42090  Biso   1.000  Hf
