data_image0
_cell_length_a       10.1922
_cell_length_b       5.20825
_cell_length_c       10.1815
_cell_angle_alpha    90
_cell_angle_beta     90
_cell_angle_gamma    90

_symmetry_space_group_name_H-M    "P 1"
_symmetry_int_tables_number       1

loop_
  _symmetry_equiv_pos_as_xyz
  'x, y, z'

loop_
  _atom_site_label
  _atom_site_occupancy
  _atom_site_fract_x
  _atom_site_fract_y
  _atom_site_fract_z
  _atom_site_thermal_displace_type
  _atom_site_B_iso_or_equiv
  _atom_site_type_symbol
  La1      1.0000 0.12170  0.00568  0.11856  Biso   1.000  La
  Hf1      1.0000 0.13096  0.00980  0.62310  Biso   1.000  Hf
  Hf2      1.0000 0.63332  0.02759  0.12440  Biso   1.000  Hf
  Hf3      1.0000 0.64123  0.02090  0.63053  Biso   1.000  Hf
  Hf4      1.0000 0.13070  0.45898  0.37537  Biso   1.000  Hf
  Hf5      1.0000 0.14021  0.45333  0.86939  Biso   1.000  Hf
  Hf6      1.0000 0.63322  0.45520  0.37546  Biso   1.000  Hf
  Hf7      1.0000 0.64343  0.44868  0.88106  Biso   1.000  Hf
  Hf8      1.0000 0.36898  0.51892  0.12314  Biso   1.000  Hf
  La2      1.0000 0.37813  0.49672  0.61844  Biso   1.000  La
  Hf9      1.0000 0.85865  0.52999  0.13049  Biso   1.000  Hf
  Hf10     1.0000 0.86664  0.51864  0.62434  Biso   1.000  Hf
  Hf11     1.0000 0.35997  0.96257  0.36936  Biso   1.000  Hf
  Hf12     1.0000 0.36957  0.95013  0.87542  Biso   1.000  Hf
  Hf13     1.0000 0.85680  0.95794  0.38115  Biso   1.000  Hf
  Hf14     1.0000 0.86698  0.94627  0.87535  Biso   1.000  Hf
  Hf15     1.0000 0.02779  0.39827  0.20201  Biso   1.000  Hf
  Hf16     1.0000 0.03793  0.36246  0.68510  Biso   1.000  Hf
  Hf17     1.0000 0.53791  0.36018  0.19387  Biso   1.000  Hf
  Hf18     1.0000 0.56768  0.35829  0.70324  Biso   1.000  Hf
  Hf19     1.0000 0.02252  0.12736  0.44185  Biso   1.000  Hf
  Hf20     1.0000 0.02642  0.14614  0.92259  Biso   1.000  Hf
  Hf21     1.0000 0.52222  0.14903  0.45785  Biso   1.000  Hf
  Hf22     1.0000 0.53882  0.11887  0.94741  Biso   1.000  Hf
  Hf23     1.0000 0.46203  0.87148  0.18522  Biso   1.000  Hf
  Hf24     1.0000 0.47219  0.88897  0.70204  Biso   1.000  Hf
  Hf25     1.0000 0.93205  0.86756  0.20308  Biso   1.000  Hf
  Hf26     1.0000 0.96199  0.85119  0.69370  Biso   1.000  Hf
  Hf27     1.0000 0.47375  0.65528  0.42259  Biso   1.000  Hf
  Hf28     1.0000 0.47779  0.61845  0.94196  Biso   1.000  Hf
  Hf29     1.0000 0.96136  0.62792  0.44732  Biso   1.000  Hf
  Hf30     1.0000 0.97801  0.64011  0.95772  Biso   1.000  Hf
  Hf31     1.0000 0.27808  0.23930  0.24845  Biso   1.000  Hf
  Hf32     1.0000 0.25806  0.19690  0.75228  Biso   1.000  Hf
  Hf33     1.0000 0.76445  0.23112  0.25298  Biso   1.000  Hf
  Hf34     1.0000 0.78448  0.22011  0.75087  Biso   1.000  Hf
  Hf35     1.0000 0.25195  0.23086  0.48978  Biso   1.000  Hf
  Hf36     1.0000 0.27846  0.24742  0.99004  Biso   1.000  Hf
  Hf37     1.0000 0.76525  0.25319  0.50152  Biso   1.000  Hf
  Hf38     1.0000 0.77262  0.25942  0.00219  Biso   1.000  Hf
  Hf39     1.0000 0.22186  0.75646  0.49007  Biso   1.000  Hf
  Hf40     1.0000 0.24839  0.72177  0.98977  Biso   1.000  Hf
  Hf41     1.0000 0.72701  0.75036  0.50220  Biso   1.000  Hf
  Hf42     1.0000 0.73446  0.76227  0.00155  Biso   1.000  Hf
  Hf43     1.0000 0.24198  0.70611  0.25229  Biso   1.000  Hf
  Hf44     1.0000 0.22178  0.73022  0.74843  Biso   1.000  Hf
  Hf45     1.0000 0.71547  0.72921  0.25089  Biso   1.000  Hf
  Hf46     1.0000 0.73558  0.72207  0.75295  Biso   1.000  Hf
