data_image0
_cell_length_a       10.2137
_cell_length_b       5.18276
_cell_length_c       10.2698
_cell_angle_alpha    90
_cell_angle_beta     90
_cell_angle_gamma    90

_symmetry_space_group_name_H-M    "P 1"
_symmetry_int_tables_number       1

loop_
  _symmetry_equiv_pos_as_xyz
  'x, y, z'

loop_
  _atom_site_label
  _atom_site_occupancy
  _atom_site_fract_x
  _atom_site_fract_y
  _atom_site_fract_z
  _atom_site_thermal_displace_type
  _atom_site_B_iso_or_equiv
  _atom_site_type_symbol
  La1      1.0000 0.16130  0.99679  0.13116  Biso   1.000  La
  Hf1      1.0000 0.16969  0.00156  0.62802  Biso   1.000  Hf
  Hf2      1.0000 0.62865  0.03759  0.11971  Biso   1.000  Hf
  Hf3      1.0000 0.66739  0.09783  0.64118  Biso   1.000  Hf
  Hf4      1.0000 0.15554  0.48897  0.38296  Biso   1.000  Hf
  Hf5      1.0000 0.16117  0.47840  0.86062  Biso   1.000  Hf
  La2      1.0000 0.64495  0.52902  0.37183  Biso   1.000  La
  Hf6      1.0000 0.68126  0.57371  0.87383  Biso   1.000  Hf
  Hf7      1.0000 0.39186  0.51059  0.13710  Biso   1.000  Hf
  Hf8      1.0000 0.42137  0.53792  0.64218  Biso   1.000  Hf
  Hf9      1.0000 0.90734  0.51137  0.14011  Biso   1.000  Hf
  Hf10     1.0000 0.89848  0.59427  0.61288  Biso   1.000  Hf
  Hf11     1.0000 0.41440  0.01523  0.36577  Biso   1.000  Hf
  Hf12     1.0000 0.42947  0.03737  0.85963  Biso   1.000  Hf
  Hf13     1.0000 0.89884  0.01479  0.36296  Biso   1.000  Hf
  Hf14     1.0000 0.95235  0.98150  0.88885  Biso   1.000  Hf
  Hf15     1.0000 0.98415  0.23815  0.00955  Biso   1.000  Hf
  Hf16     1.0000 0.04574  0.36743  0.54238  Biso   1.000  Hf
  Hf17     1.0000 0.53633  0.37352  0.02775  Biso   1.000  Hf
  Hf18     1.0000 0.51839  0.25188  0.52535  Biso   1.000  Hf
  Hf19     1.0000 0.01264  0.25278  0.28333  Biso   1.000  Hf
  Hf20     1.0000 0.05196  0.19427  0.77585  Biso   1.000  Hf
  Hf21     1.0000 0.51323  0.23937  0.25532  Biso   1.000  Hf
  Hf22     1.0000 0.53990  0.30854  0.77633  Biso   1.000  Hf
  Hf23     1.0000 0.02256  0.72349  0.26690  Biso   1.000  Hf
  Hf24     1.0000 0.04252  0.71114  0.74674  Biso   1.000  Hf
  Hf25     1.0000 0.52176  0.77378  0.21617  Biso   1.000  Hf
  Hf26     1.0000 0.55351  0.79751  0.72947  Biso   1.000  Hf
  Hf27     1.0000 0.08307  0.75886  0.99527  Biso   1.000  Hf
  Hf28     1.0000 0.01858  0.87274  0.50789  Biso   1.000  Hf
  Hf29     1.0000 0.60196  0.92423  0.96016  Biso   1.000  Hf
  Hf30     1.0000 0.48205  0.75055  0.48675  Biso   1.000  Hf
  Hf31     1.0000 0.27092  0.28723  0.24759  Biso   1.000  Hf
  Hf32     1.0000 0.28864  0.26793  0.72542  Biso   1.000  Hf
  Hf33     1.0000 0.77143  0.27406  0.21960  Biso   1.000  Hf
  Hf34     1.0000 0.77651  0.38233  0.72571  Biso   1.000  Hf
  Hf35     1.0000 0.31033  0.32415  0.97633  Biso   1.000  Hf
  Hf36     1.0000 0.24764  0.15292  0.47517  Biso   1.000  Hf
  Hf37     1.0000 0.78326  0.20994  0.95931  Biso   1.000  Hf
  Hf38     1.0000 0.80018  0.28933  0.49334  Biso   1.000  Hf
  Hf39     1.0000 0.32394  0.77497  0.01619  Biso   1.000  Hf
  Hf40     1.0000 0.24875  0.65085  0.54139  Biso   1.000  Hf
  Hf41     1.0000 0.83204  0.70381  0.99424  Biso   1.000  Hf
  Hf42     1.0000 0.76765  0.81683  0.50650  Biso   1.000  Hf
  Hf43     1.0000 0.28452  0.75192  0.28673  Biso   1.000  Hf
  Hf44     1.0000 0.29733  0.77799  0.77206  Biso   1.000  Hf
  Hf45     1.0000 0.78369  0.80241  0.23632  Biso   1.000  Hf
  Hf46     1.0000 0.80838  0.86430  0.75508  Biso   1.000  Hf
