data_image0
_cell_length_a       10.2112
_cell_length_b       5.17882
_cell_length_c       10.4429
_cell_angle_alpha    90
_cell_angle_beta     90
_cell_angle_gamma    90

_symmetry_space_group_name_H-M    "P 1"
_symmetry_int_tables_number       1

loop_
  _symmetry_equiv_pos_as_xyz
  'x, y, z'

loop_
  _atom_site_label
  _atom_site_occupancy
  _atom_site_fract_x
  _atom_site_fract_y
  _atom_site_fract_z
  _atom_site_thermal_displace_type
  _atom_site_B_iso_or_equiv
  _atom_site_type_symbol
  La1      1.0000 0.12097  0.01098  0.14993  Biso   1.000  La
  Hf1      1.0000 0.12077  0.04135  0.66827  Biso   1.000  Hf
  La2      1.0000 0.11510  0.47030  0.40415  Biso   1.000  La
  Hf2      1.0000 0.11900  0.46236  0.91407  Biso   1.000  Hf
  Hf3      1.0000 0.36609  0.53081  0.16482  Biso   1.000  Hf
  Hf4      1.0000 0.34041  0.53885  0.66624  Biso   1.000  Hf
  Hf5      1.0000 0.35118  0.96766  0.41651  Biso   1.000  Hf
  Hf6      1.0000 0.34283  0.95684  0.91605  Biso   1.000  Hf
  Hf7      1.0000 0.64311  0.03853  0.07935  Biso   1.000  Hf
  Hf8      1.0000 0.62000  0.03660  0.58506  Biso   1.000  Hf
  Hf9      1.0000 0.63235  0.45512  0.33434  Biso   1.000  Hf
  Hf10     1.0000 0.61603  0.45672  0.83004  Biso   1.000  Hf
  Hf11     1.0000 0.85795  0.53423  0.08027  Biso   1.000  Hf
  Hf12     1.0000 0.83999  0.53245  0.58912  Biso   1.000  Hf
  Hf13     1.0000 0.83998  0.96185  0.33779  Biso   1.000  Hf
  Hf14     1.0000 0.84323  0.95316  0.83255  Biso   1.000  Hf
  Hf15     1.0000 0.04447  0.42955  0.10669  Biso   1.000  Hf
  Hf16     1.0000 0.01146  0.34478  0.60650  Biso   1.000  Hf
  Hf17     1.0000 0.02292  0.06437  0.35800  Biso   1.000  Hf
  Hf18     1.0000 0.01842  0.13772  0.85388  Biso   1.000  Hf
  Hf19     1.0000 0.47607  0.82699  0.07757  Biso   1.000  Hf
  Hf20     1.0000 0.45583  0.81731  0.57966  Biso   1.000  Hf
  Hf21     1.0000 0.47085  0.68062  0.33015  Biso   1.000  Hf
  Hf22     1.0000 0.44789  0.67052  0.82710  Biso   1.000  Hf
  Hf23     1.0000 0.28414  0.24656  0.28749  Biso   1.000  Hf
  Hf24     1.0000 0.25277  0.24834  0.78928  Biso   1.000  Hf
  Hf25     1.0000 0.28248  0.25301  0.03139  Biso   1.000  Hf
  Hf26     1.0000 0.26338  0.24722  0.54675  Biso   1.000  Hf
  Hf27     1.0000 0.24573  0.75102  0.28249  Biso   1.000  Hf
  Hf28     1.0000 0.20315  0.74340  0.78795  Biso   1.000  Hf
  Hf29     1.0000 0.24867  0.72938  0.02668  Biso   1.000  Hf
  Hf30     1.0000 0.21620  0.77112  0.54502  Biso   1.000  Hf
  Hf31     1.0000 0.53485  0.32166  0.16745  Biso   1.000  Hf
  Hf32     1.0000 0.51288  0.32527  0.66776  Biso   1.000  Hf
  Hf33     1.0000 0.52217  0.17357  0.41975  Biso   1.000  Hf
  Hf34     1.0000 0.51232  0.16921  0.91641  Biso   1.000  Hf
  Hf35     1.0000 0.90904  0.88318  0.14928  Biso   1.000  Hf
  Hf36     1.0000 0.94422  0.84369  0.66081  Biso   1.000  Hf
  Hf37     1.0000 0.90612  0.61288  0.40142  Biso   1.000  Hf
  Hf38     1.0000 0.93985  0.64590  0.90993  Biso   1.000  Hf
  Hf39     1.0000 0.75265  0.24067  0.95795  Biso   1.000  Hf
  Hf40     1.0000 0.75773  0.23452  0.46632  Biso   1.000  Hf
  Hf41     1.0000 0.77036  0.26525  0.21277  Biso   1.000  Hf
  Hf42     1.0000 0.75357  0.24774  0.71238  Biso   1.000  Hf
  Hf43     1.0000 0.70075  0.74210  0.95530  Biso   1.000  Hf
  Hf44     1.0000 0.70002  0.74374  0.46546  Biso   1.000  Hf
  Hf45     1.0000 0.70402  0.75394  0.21250  Biso   1.000  Hf
  Hf46     1.0000 0.70696  0.74657  0.71043  Biso   1.000  Hf
