data_image0
_cell_length_a       5.10805
_cell_length_b       10.4594
_cell_length_c       10.5597
_cell_angle_alpha    90
_cell_angle_beta     80
_cell_angle_gamma    90

_symmetry_space_group_name_H-M    "P 1"
_symmetry_int_tables_number       1

loop_
  _symmetry_equiv_pos_as_xyz
  'x, y, z'

loop_
  _atom_site_label
  _atom_site_occupancy
  _atom_site_fract_x
  _atom_site_fract_y
  _atom_site_fract_z
  _atom_site_thermal_displace_type
  _atom_site_B_iso_or_equiv
  _atom_site_type_symbol
  La1      1.0000 0.25452  0.01439  0.13867  Biso   1.000  La
  Hf1      1.0000 0.24458  0.03863  0.65499  Biso   1.000  Hf
  Hf2      1.0000 0.26075  0.51137  0.14551  Biso   1.000  Hf
  Hf3      1.0000 0.25127  0.53483  0.64634  Biso   1.000  Hf
  Hf4      1.0000 0.25283  0.24160  0.40231  Biso   1.000  Hf
  Hf5      1.0000 0.23975  0.24683  0.89702  Biso   1.000  Hf
  La2      1.0000 0.25723  0.74265  0.39020  Biso   1.000  La
  Hf6      1.0000 0.25207  0.74117  0.88972  Biso   1.000  Hf
  Hf7      1.0000 0.70977  0.27090  0.10267  Biso   1.000  Hf
  Hf8      1.0000 0.69466  0.28622  0.60932  Biso   1.000  Hf
  Hf9      1.0000 0.72746  0.74261  0.08296  Biso   1.000  Hf
  Hf10     1.0000 0.69438  0.78482  0.60768  Biso   1.000  Hf
  Hf11     1.0000 0.69997  0.48286  0.35349  Biso   1.000  Hf
  Hf12     1.0000 0.69464  0.48901  0.85086  Biso   1.000  Hf
  Hf13     1.0000 0.69997  0.00820  0.37990  Biso   1.000  Hf
  Hf14     1.0000 0.68883  0.99212  0.85605  Biso   1.000  Hf
  Hf15     1.0000 0.06440  0.18550  0.07702  Biso   1.000  Hf
  Hf16     1.0000 0.04157  0.18578  0.59042  Biso   1.000  Hf
  Hf17     1.0000 0.09254  0.67515  0.08118  Biso   1.000  Hf
  Hf18     1.0000 0.03717  0.68263  0.59438  Biso   1.000  Hf
  Hf19     1.0000 0.06228  0.08059  0.35235  Biso   1.000  Hf
  Hf20     1.0000 0.04376  0.09066  0.84111  Biso   1.000  Hf
  Hf21     1.0000 0.05390  0.56689  0.32471  Biso   1.000  Hf
  Hf22     1.0000 0.03953  0.59093  0.83535  Biso   1.000  Hf
  Hf23     1.0000 0.90713  0.42038  0.16371  Biso   1.000  Hf
  Hf24     1.0000 0.89925  0.43482  0.66878  Biso   1.000  Hf
  Hf25     1.0000 0.81361  0.92058  0.17766  Biso   1.000  Hf
  Hf26     1.0000 0.89477  0.93496  0.67439  Biso   1.000  Hf
  Hf27     1.0000 0.89688  0.33281  0.42111  Biso   1.000  Hf
  Hf28     1.0000 0.88645  0.34317  0.91559  Biso   1.000  Hf
  Hf29     1.0000 0.86181  0.84208  0.42454  Biso   1.000  Hf
  Hf30     1.0000 0.91282  0.84589  0.92099  Biso   1.000  Hf
  Hf31     1.0000 0.55041  0.13852  0.25260  Biso   1.000  Hf
  Hf32     1.0000 0.52123  0.14422  0.74538  Biso   1.000  Hf
  Hf33     1.0000 0.55295  0.61893  0.22614  Biso   1.000  Hf
  Hf34     1.0000 0.51731  0.64294  0.74106  Biso   1.000  Hf
  Hf35     1.0000 0.51988  0.14177  0.50341  Biso   1.000  Hf
  Hf36     1.0000 0.52266  0.13846  0.98698  Biso   1.000  Hf
  Hf37     1.0000 0.54337  0.62149  0.49693  Biso   1.000  Hf
  Hf38     1.0000 0.51700  0.62739  0.98425  Biso   1.000  Hf
  Hf39     1.0000 0.44474  0.37659  0.00627  Biso   1.000  Hf
  Hf40     1.0000 0.41667  0.38876  0.51077  Biso   1.000  Hf
  Hf41     1.0000 0.43660  0.87792  0.00005  Biso   1.000  Hf
  Hf42     1.0000 0.41922  0.90741  0.52123  Biso   1.000  Hf
  Hf43     1.0000 0.42645  0.37174  0.25874  Biso   1.000  Hf
  Hf44     1.0000 0.41634  0.38498  0.75959  Biso   1.000  Hf
  Hf45     1.0000 0.55686  0.87742  0.24329  Biso   1.000  Hf
  Hf46     1.0000 0.41812  0.88422  0.76122  Biso   1.000  Hf
