data_image0
_cell_length_a       10.1592
_cell_length_b       5.18654
_cell_length_c       10.4618
_cell_angle_alpha    90
_cell_angle_beta     90
_cell_angle_gamma    90

_symmetry_space_group_name_H-M    "P 1"
_symmetry_int_tables_number       1

loop_
  _symmetry_equiv_pos_as_xyz
  'x, y, z'

loop_
  _atom_site_label
  _atom_site_occupancy
  _atom_site_fract_x
  _atom_site_fract_y
  _atom_site_fract_z
  _atom_site_thermal_displace_type
  _atom_site_B_iso_or_equiv
  _atom_site_type_symbol
  La1      1.0000 0.12656  0.01643  0.14973  Biso   1.000  La
  Hf1      1.0000 0.12339  0.03270  0.66877  Biso   1.000  Hf
  Hf2      1.0000 0.13353  0.45383  0.42401  Biso   1.000  Hf
  Hf3      1.0000 0.11733  0.45586  0.91221  Biso   1.000  Hf
  Hf4      1.0000 0.35995  0.53288  0.16554  Biso   1.000  Hf
  Hf5      1.0000 0.34407  0.53227  0.67080  Biso   1.000  Hf
  Hf6      1.0000 0.34186  0.95411  0.41836  Biso   1.000  Hf
  Hf7      1.0000 0.34463  0.95294  0.91618  Biso   1.000  Hf
  Hf8      1.0000 0.64429  0.04037  0.08151  Biso   1.000  Hf
  Hf9      1.0000 0.62023  0.03027  0.58349  Biso   1.000  Hf
  Hf10     1.0000 0.62618  0.46154  0.33434  Biso   1.000  Hf
  Hf11     1.0000 0.62081  0.45097  0.82887  Biso   1.000  Hf
  Hf12     1.0000 0.85260  0.54061  0.07585  Biso   1.000  Hf
  Hf13     1.0000 0.84756  0.52741  0.58750  Biso   1.000  Hf
  La2      1.0000 0.85957  0.97802  0.35014  Biso   1.000  La
  Hf14     1.0000 0.84152  0.95058  0.83090  Biso   1.000  Hf
  Hf15     1.0000 0.03872  0.42038  0.09291  Biso   1.000  Hf
  Hf16     1.0000 0.02663  0.35241  0.60520  Biso   1.000  Hf
  Hf17     1.0000 0.07369  0.09775  0.37219  Biso   1.000  Hf
  Hf18     1.0000 0.02357  0.12614  0.84861  Biso   1.000  Hf
  Hf19     1.0000 0.46944  0.82928  0.08178  Biso   1.000  Hf
  Hf20     1.0000 0.44879  0.81759  0.58067  Biso   1.000  Hf
  Hf21     1.0000 0.46114  0.67879  0.32997  Biso   1.000  Hf
  Hf22     1.0000 0.45081  0.66578  0.82950  Biso   1.000  Hf
  Hf23     1.0000 0.28045  0.24474  0.29389  Biso   1.000  Hf
  Hf24     1.0000 0.25715  0.24226  0.79085  Biso   1.000  Hf
  Hf25     1.0000 0.28143  0.25335  0.03301  Biso   1.000  Hf
  Hf26     1.0000 0.26497  0.24293  0.54661  Biso   1.000  Hf
  Hf27     1.0000 0.22369  0.71403  0.29339  Biso   1.000  Hf
  Hf28     1.0000 0.20570  0.74025  0.78800  Biso   1.000  Hf
  Hf29     1.0000 0.24325  0.72841  0.02672  Biso   1.000  Hf
  Hf30     1.0000 0.20929  0.74572  0.54430  Biso   1.000  Hf
  Hf31     1.0000 0.52500  0.31567  0.16989  Biso   1.000  Hf
  Hf32     1.0000 0.51408  0.31751  0.67017  Biso   1.000  Hf
  Hf33     1.0000 0.51669  0.16519  0.41806  Biso   1.000  Hf
  Hf34     1.0000 0.51607  0.16569  0.91903  Biso   1.000  Hf
  Hf35     1.0000 0.91245  0.89669  0.12769  Biso   1.000  Hf
  Hf36     1.0000 0.94133  0.85715  0.65105  Biso   1.000  Hf
  Hf37     1.0000 0.94743  0.57403  0.40697  Biso   1.000  Hf
  Hf38     1.0000 0.93823  0.63088  0.89447  Biso   1.000  Hf
  Hf39     1.0000 0.75557  0.23748  0.95539  Biso   1.000  Hf
  Hf40     1.0000 0.74291  0.26611  0.47318  Biso   1.000  Hf
  Hf41     1.0000 0.76246  0.28044  0.20647  Biso   1.000  Hf
  Hf42     1.0000 0.75918  0.24297  0.71167  Biso   1.000  Hf
  Hf43     1.0000 0.69990  0.74039  0.95302  Biso   1.000  Hf
  Hf44     1.0000 0.70472  0.74109  0.46682  Biso   1.000  Hf
  Hf45     1.0000 0.70569  0.74972  0.20598  Biso   1.000  Hf
  Hf46     1.0000 0.70771  0.74102  0.70884  Biso   1.000  Hf
