data_image0
_cell_length_a       10.1981
_cell_length_b       10.4222
_cell_length_c       5.30371
_cell_angle_alpha    90
_cell_angle_beta     80
_cell_angle_gamma    90

_symmetry_space_group_name_H-M    "P 1"
_symmetry_int_tables_number       1

loop_
  _symmetry_equiv_pos_as_xyz
  'x, y, z'

loop_
  _atom_site_label
  _atom_site_occupancy
  _atom_site_fract_x
  _atom_site_fract_y
  _atom_site_fract_z
  _atom_site_thermal_displace_type
  _atom_site_B_iso_or_equiv
  _atom_site_type_symbol
  La1      1.0000 0.12159  0.01166  0.28687  Biso   1.000  La
  Hf1      1.0000 0.13801  0.52187  0.29021  Biso   1.000  Hf
  Hf2      1.0000 0.62982  0.02937  0.29359  Biso   1.000  Hf
  Hf3      1.0000 0.62666  0.51643  0.27692  Biso   1.000  Hf
  Hf4      1.0000 0.12628  0.24247  0.79794  Biso   1.000  Hf
  Hf5      1.0000 0.13799  0.73085  0.78800  Biso   1.000  Hf
  Hf6      1.0000 0.62538  0.24074  0.78898  Biso   1.000  Hf
  La2      1.0000 0.60968  0.75350  0.75273  Biso   1.000  La
  Hf7      1.0000 0.35283  0.26732  0.21042  Biso   1.000  Hf
  Hf8      1.0000 0.36602  0.77570  0.22957  Biso   1.000  Hf
  Hf9      1.0000 0.85734  0.28117  0.20521  Biso   1.000  Hf
  Hf10     1.0000 0.86000  0.74582  0.15505  Biso   1.000  Hf
  Hf11     1.0000 0.35090  0.47934  0.70729  Biso   1.000  Hf
  Hf12     1.0000 0.35363  0.99076  0.72961  Biso   1.000  Hf
  Hf13     1.0000 0.85131  0.48786  0.69063  Biso   1.000  Hf
  Hf14     1.0000 0.85148  0.00248  0.75737  Biso   1.000  Hf
  Hf15     1.0000 0.02944  0.18993  0.16173  Biso   1.000  Hf
  Hf16     1.0000 0.04031  0.67154  0.14929  Biso   1.000  Hf
  Hf17     1.0000 0.52589  0.15834  0.14277  Biso   1.000  Hf
  Hf18     1.0000 0.52459  0.65902  0.15053  Biso   1.000  Hf
  Hf19     1.0000 0.02367  0.08959  0.70385  Biso   1.000  Hf
  Hf20     1.0000 0.02599  0.59096  0.64959  Biso   1.000  Hf
  Hf21     1.0000 0.52749  0.09766  0.63903  Biso   1.000  Hf
  Hf22     1.0000 0.52320  0.57138  0.63708  Biso   1.000  Hf
  Hf23     1.0000 0.45691  0.40805  0.34216  Biso   1.000  Hf
  Hf24     1.0000 0.48964  0.88563  0.44066  Biso   1.000  Hf
  Hf25     1.0000 0.95876  0.42921  0.33122  Biso   1.000  Hf
  Hf26     1.0000 0.90446  0.91839  0.36614  Biso   1.000  Hf
  Hf27     1.0000 0.45115  0.33712  0.84909  Biso   1.000  Hf
  Hf28     1.0000 0.46182  0.90212  0.96349  Biso   1.000  Hf
  Hf29     1.0000 0.94941  0.34438  0.83474  Biso   1.000  Hf
  Hf30     1.0000 0.96489  0.84525  0.83710  Biso   1.000  Hf
  Hf31     1.0000 0.27288  0.13583  0.49193  Biso   1.000  Hf
  Hf32     1.0000 0.26879  0.62855  0.48235  Biso   1.000  Hf
  Hf33     1.0000 0.76876  0.13358  0.48847  Biso   1.000  Hf
  Hf34     1.0000 0.76987  0.62515  0.43918  Biso   1.000  Hf
  Hf35     1.0000 0.26365  0.13433  0.97661  Biso   1.000  Hf
  Hf36     1.0000 0.26840  0.62454  0.98031  Biso   1.000  Hf
  Hf37     1.0000 0.75855  0.14052  0.99566  Biso   1.000  Hf
  Hf38     1.0000 0.76671  0.62665  0.95450  Biso   1.000  Hf
  Hf39     1.0000 0.22175  0.37756  0.02021  Biso   1.000  Hf
  Hf40     1.0000 0.23520  0.86007  0.00614  Biso   1.000  Hf
  Hf41     1.0000 0.71898  0.37969  0.00828  Biso   1.000  Hf
  Hf42     1.0000 0.73513  0.88807  0.03043  Biso   1.000  Hf
  Hf43     1.0000 0.21259  0.37617  0.51940  Biso   1.000  Hf
  Hf44     1.0000 0.23766  0.86926  0.53032  Biso   1.000  Hf
  Hf45     1.0000 0.71675  0.37380  0.51145  Biso   1.000  Hf
  Hf46     1.0000 0.76981  0.88730  0.48641  Biso   1.000  Hf
