data_image0
_cell_length_a       10.3193
_cell_length_b       5.16879
_cell_length_c       10.4802
_cell_angle_alpha    90
_cell_angle_beta     90
_cell_angle_gamma    90

_symmetry_space_group_name_H-M    "P 1"
_symmetry_int_tables_number       1

loop_
  _symmetry_equiv_pos_as_xyz
  'x, y, z'

loop_
  _atom_site_label
  _atom_site_occupancy
  _atom_site_fract_x
  _atom_site_fract_y
  _atom_site_fract_z
  _atom_site_thermal_displace_type
  _atom_site_B_iso_or_equiv
  _atom_site_type_symbol
  La1      1.0000 0.12301  0.02583  0.15360  Biso   1.000  La
  Hf1      1.0000 0.12596  0.04228  0.66483  Biso   1.000  Hf
  Hf2      1.0000 0.12184  0.46177  0.41905  Biso   1.000  Hf
  Hf3      1.0000 0.14769  0.46490  0.90249  Biso   1.000  Hf
  Hf4      1.0000 0.35536  0.53881  0.17319  Biso   1.000  Hf
  Hf5      1.0000 0.34879  0.54896  0.66024  Biso   1.000  Hf
  Hf6      1.0000 0.34413  0.96688  0.41764  Biso   1.000  Hf
  Hf7      1.0000 0.34166  0.96767  0.91492  Biso   1.000  Hf
  Hf8      1.0000 0.62603  0.05006  0.08465  Biso   1.000  Hf
  Hf9      1.0000 0.62356  0.05085  0.58193  Biso   1.000  Hf
  Hf10     1.0000 0.61890  0.46877  0.33933  Biso   1.000  Hf
  Hf11     1.0000 0.61233  0.47892  0.82638  Biso   1.000  Hf
  Hf12     1.0000 0.82000  0.55284  0.09708  Biso   1.000  Hf
  Hf13     1.0000 0.84585  0.55596  0.58052  Biso   1.000  Hf
  Hf14     1.0000 0.84173  0.97546  0.33474  Biso   1.000  Hf
  La2      1.0000 0.84468  0.99191  0.84597  Biso   1.000  La
  Hf15     1.0000 0.01441  0.41954  0.05501  Biso   1.000  Hf
  Hf16     1.0000 0.01621  0.33151  0.58535  Biso   1.000  Hf
  Hf17     1.0000 0.00798  0.19918  0.33091  Biso   1.000  Hf
  Hf18     1.0000 0.05298  0.14553  0.84606  Biso   1.000  Hf
  Hf19     1.0000 0.45922  0.83756  0.08616  Biso   1.000  Hf
  Hf20     1.0000 0.44911  0.84464  0.58162  Biso   1.000  Hf
  Hf21     1.0000 0.45187  0.67592  0.33669  Biso   1.000  Hf
  Hf22     1.0000 0.44434  0.67870  0.82905  Biso   1.000  Hf
  Hf23     1.0000 0.26654  0.25441  0.29638  Biso   1.000  Hf
  Hf24     1.0000 0.27230  0.25314  0.78175  Biso   1.000  Hf
  Hf25     1.0000 0.28715  0.25512  0.03216  Biso   1.000  Hf
  Hf26     1.0000 0.25692  0.25921  0.53942  Biso   1.000  Hf
  Hf27     1.0000 0.21488  0.73465  0.29338  Biso   1.000  Hf
  Hf28     1.0000 0.21274  0.74976  0.78210  Biso   1.000  Hf
  Hf29     1.0000 0.23813  0.72713  0.02966  Biso   1.000  Hf
  Hf30     1.0000 0.20973  0.76027  0.53869  Biso   1.000  Hf
  Hf31     1.0000 0.52335  0.33904  0.17052  Biso   1.000  Hf
  Hf32     1.0000 0.51582  0.34181  0.66286  Biso   1.000  Hf
  Hf33     1.0000 0.51858  0.17309  0.41795  Biso   1.000  Hf
  Hf34     1.0000 0.50847  0.18018  0.91341  Biso   1.000  Hf
  Hf35     1.0000 0.91472  0.87220  0.15351  Biso   1.000  Hf
  Hf36     1.0000 0.95971  0.81856  0.66866  Biso   1.000  Hf
  Hf37     1.0000 0.95148  0.68622  0.41422  Biso   1.000  Hf
  Hf38     1.0000 0.95328  0.59820  0.94456  Biso   1.000  Hf
  Hf39     1.0000 0.72956  0.29061  0.96991  Biso   1.000  Hf
  Hf40     1.0000 0.75796  0.25746  0.46088  Biso   1.000  Hf
  Hf41     1.0000 0.75495  0.26798  0.21747  Biso   1.000  Hf
  Hf42     1.0000 0.75281  0.28308  0.70619  Biso   1.000  Hf
  Hf43     1.0000 0.68054  0.76261  0.96741  Biso   1.000  Hf
  Hf44     1.0000 0.71077  0.75853  0.46015  Biso   1.000  Hf
  Hf45     1.0000 0.69539  0.76460  0.21782  Biso   1.000  Hf
  Hf46     1.0000 0.70115  0.76333  0.70319  Biso   1.000  Hf
