data_image0
_cell_length_a       10.2122
_cell_length_b       5.20052
_cell_length_c       10.148
_cell_angle_alpha    90
_cell_angle_beta     90
_cell_angle_gamma    90

_symmetry_space_group_name_H-M    "P 1"
_symmetry_int_tables_number       1

loop_
  _symmetry_equiv_pos_as_xyz
  'x, y, z'

loop_
  _atom_site_label
  _atom_site_occupancy
  _atom_site_fract_x
  _atom_site_fract_y
  _atom_site_fract_z
  _atom_site_thermal_displace_type
  _atom_site_B_iso_or_equiv
  _atom_site_type_symbol
  La1      1.0000 0.11913  0.00461  0.12166  Biso   1.000  La
  Hf1      1.0000 0.14246  0.02785  0.62801  Biso   1.000  Hf
  Hf2      1.0000 0.63393  0.02542  0.12491  Biso   1.000  Hf
  Hf3      1.0000 0.63030  0.01369  0.62544  Biso   1.000  Hf
  Hf4      1.0000 0.13918  0.46358  0.37488  Biso   1.000  Hf
  Hf5      1.0000 0.14500  0.46513  0.87578  Biso   1.000  Hf
  Hf6      1.0000 0.62622  0.45912  0.37748  Biso   1.000  Hf
  Hf7      1.0000 0.63545  0.45799  0.87296  Biso   1.000  Hf
  Hf8      1.0000 0.36909  0.51683  0.12545  Biso   1.000  Hf
  Hf9      1.0000 0.36542  0.52244  0.62491  Biso   1.000  Hf
  Hf10     1.0000 0.85688  0.53088  0.12802  Biso   1.000  Hf
  La2      1.0000 0.88020  0.50162  0.62165  Biso   1.000  La
  Hf11     1.0000 0.36391  0.96111  0.37297  Biso   1.000  Hf
  Hf12     1.0000 0.37316  0.95613  0.87751  Biso   1.000  Hf
  Hf13     1.0000 0.85442  0.96824  0.37579  Biso   1.000  Hf
  Hf14     1.0000 0.86021  0.96057  0.87489  Biso   1.000  Hf
  Hf15     1.0000 0.02995  0.41124  0.19992  Biso   1.000  Hf
  Hf16     1.0000 0.07983  0.38789  0.68661  Biso   1.000  Hf
  Hf17     1.0000 0.53346  0.35365  0.19803  Biso   1.000  Hf
  Hf18     1.0000 0.53260  0.35645  0.69498  Biso   1.000  Hf
  Hf19     1.0000 0.02161  0.15645  0.45028  Biso   1.000  Hf
  Hf20     1.0000 0.02219  0.16786  0.92380  Biso   1.000  Hf
  Hf21     1.0000 0.52478  0.12746  0.44919  Biso   1.000  Hf
  Hf22     1.0000 0.53633  0.12456  0.94929  Biso   1.000  Hf
  Hf23     1.0000 0.46677  0.85954  0.19493  Biso   1.000  Hf
  Hf24     1.0000 0.46592  0.85066  0.69802  Biso   1.000  Hf
  Hf25     1.0000 0.91955  0.89098  0.18661  Biso   1.000  Hf
  Hf26     1.0000 0.96943  0.90814  0.69989  Biso   1.000  Hf
  Hf27     1.0000 0.46308  0.62765  0.44932  Biso   1.000  Hf
  Hf28     1.0000 0.47460  0.62442  0.94925  Biso   1.000  Hf
  Hf29     1.0000 0.97719  0.67086  0.42381  Biso   1.000  Hf
  Hf30     1.0000 0.97781  0.65348  0.95031  Biso   1.000  Hf
  Hf31     1.0000 0.27463  0.23493  0.25407  Biso   1.000  Hf
  Hf32     1.0000 0.28466  0.22494  0.75036  Biso   1.000  Hf
  Hf33     1.0000 0.76277  0.24082  0.24929  Biso   1.000  Hf
  Hf34     1.0000 0.75438  0.20719  0.75455  Biso   1.000  Hf
  Hf35     1.0000 0.26853  0.25504  0.49988  Biso   1.000  Hf
  Hf36     1.0000 0.27553  0.25322  0.99400  Biso   1.000  Hf
  Hf37     1.0000 0.75217  0.24048  0.49269  Biso   1.000  Hf
  Hf38     1.0000 0.76869  0.25940  0.99892  Biso   1.000  Hf
  Hf39     1.0000 0.23069  0.76247  0.49896  Biso   1.000  Hf
  Hf40     1.0000 0.24725  0.73739  0.99270  Biso   1.000  Hf
  Hf41     1.0000 0.72389  0.75632  0.49400  Biso   1.000  Hf
  Hf42     1.0000 0.73089  0.75194  0.99986  Biso   1.000  Hf
  Hf43     1.0000 0.24501  0.71029  0.25458  Biso   1.000  Hf
  Hf44     1.0000 0.23659  0.73782  0.74929  Biso   1.000  Hf
  Hf45     1.0000 0.71472  0.72790  0.25033  Biso   1.000  Hf
  Hf46     1.0000 0.72474  0.73187  0.75405  Biso   1.000  Hf
