data_image0
_cell_length_a       5.05237
_cell_length_b       10.4661
_cell_length_c       10.2218
_cell_angle_alpha    90
_cell_angle_beta     90
_cell_angle_gamma    90

_symmetry_space_group_name_H-M    "P 1"
_symmetry_int_tables_number       1

loop_
  _symmetry_equiv_pos_as_xyz
  'x, y, z'

loop_
  _atom_site_label
  _atom_site_occupancy
  _atom_site_fract_x
  _atom_site_fract_y
  _atom_site_fract_z
  _atom_site_thermal_displace_type
  _atom_site_B_iso_or_equiv
  _atom_site_type_symbol
  La1      1.0000 0.24467  0.00746  0.11815  Biso   1.000  La
  Hf1      1.0000 0.26906  0.01657  0.62598  Biso   1.000  Hf
  Hf2      1.0000 0.26173  0.51418  0.11600  Biso   1.000  Hf
  Hf3      1.0000 0.28035  0.51529  0.63104  Biso   1.000  Hf
  Hf4      1.0000 0.27686  0.23225  0.37874  Biso   1.000  Hf
  Hf5      1.0000 0.27195  0.23411  0.86636  Biso   1.000  Hf
  Hf6      1.0000 0.26598  0.73583  0.38314  Biso   1.000  Hf
  Hf7      1.0000 0.27856  0.73170  0.87460  Biso   1.000  Hf
  Hf8      1.0000 0.71411  0.26447  0.12109  Biso   1.000  Hf
  Hf9      1.0000 0.73344  0.26568  0.62382  Biso   1.000  Hf
  Hf10     1.0000 0.72298  0.76145  0.12945  Biso   1.000  Hf
  Hf11     1.0000 0.73866  0.76637  0.62979  Biso   1.000  Hf
  La2      1.0000 0.74952  0.49182  0.36656  Biso   1.000  La
  Hf12     1.0000 0.73667  0.47986  0.87748  Biso   1.000  Hf
  Hf13     1.0000 0.72335  0.98300  0.38015  Biso   1.000  Hf
  Hf14     1.0000 0.73586  0.98223  0.86875  Biso   1.000  Hf
  Hf15     1.0000 0.04522  0.19601  0.20627  Biso   1.000  Hf
  Hf16     1.0000 0.08000  0.18560  0.68586  Biso   1.000  Hf
  Hf17     1.0000 0.03213  0.66882  0.21340  Biso   1.000  Hf
  Hf18     1.0000 0.07306  0.68320  0.70148  Biso   1.000  Hf
  Hf19     1.0000 0.07051  0.06222  0.44408  Biso   1.000  Hf
  Hf20     1.0000 0.06792  0.07216  0.91474  Biso   1.000  Hf
  Hf21     1.0000 0.11327  0.56825  0.45883  Biso   1.000  Hf
  Hf22     1.0000 0.07021  0.57026  0.94152  Biso   1.000  Hf
  Hf23     1.0000 0.91055  0.43259  0.15482  Biso   1.000  Hf
  Hf24     1.0000 0.94072  0.43289  0.69696  Biso   1.000  Hf
  Hf25     1.0000 0.89130  0.92267  0.21021  Biso   1.000  Hf
  Hf26     1.0000 0.93445  0.93238  0.69514  Biso   1.000  Hf
  Hf27     1.0000 0.93897  0.30382  0.45374  Biso   1.000  Hf
  Hf28     1.0000 0.93031  0.31239  0.93621  Biso   1.000  Hf
  Hf29     1.0000 0.93032  0.81647  0.45455  Biso   1.000  Hf
  Hf30     1.0000 0.97122  0.82586  0.96171  Biso   1.000  Hf
  Hf31     1.0000 0.55063  0.12486  0.25659  Biso   1.000  Hf
  Hf32     1.0000 0.54419  0.11559  0.74530  Biso   1.000  Hf
  Hf33     1.0000 0.49662  0.62497  0.23904  Biso   1.000  Hf
  Hf34     1.0000 0.55021  0.61559  0.75233  Biso   1.000  Hf
  Hf35     1.0000 0.53886  0.12983  0.50281  Biso   1.000  Hf
  Hf36     1.0000 0.55150  0.13396  0.98794  Biso   1.000  Hf
  Hf37     1.0000 0.53742  0.64571  0.50793  Biso   1.000  Hf
  Hf38     1.0000 0.54066  0.62559  0.99722  Biso   1.000  Hf
  Hf39     1.0000 0.44967  0.37368  0.50698  Biso   1.000  Hf
  Hf40     1.0000 0.45197  0.37968  0.99341  Biso   1.000  Hf
  Hf41     1.0000 0.45875  0.88577  0.50268  Biso   1.000  Hf
  Hf42     1.0000 0.49828  0.86806  0.98973  Biso   1.000  Hf
  Hf43     1.0000 0.42898  0.36446  0.23987  Biso   1.000  Hf
  Hf44     1.0000 0.47487  0.36746  0.75007  Biso   1.000  Hf
  Hf45     1.0000 0.46087  0.85730  0.25852  Biso   1.000  Hf
  Hf46     1.0000 0.46438  0.86658  0.74771  Biso   1.000  Hf
