data_image0
_cell_length_a       10.1862
_cell_length_b       5.20278
_cell_length_c       10.1381
_cell_angle_alpha    90
_cell_angle_beta     90
_cell_angle_gamma    90

_symmetry_space_group_name_H-M    "P 1"
_symmetry_int_tables_number       1

loop_
  _symmetry_equiv_pos_as_xyz
  'x, y, z'

loop_
  _atom_site_label
  _atom_site_occupancy
  _atom_site_fract_x
  _atom_site_fract_y
  _atom_site_fract_z
  _atom_site_thermal_displace_type
  _atom_site_B_iso_or_equiv
  _atom_site_type_symbol
  La1      1.0000 0.12710  0.99917  0.12553  Biso   1.000  La
  Hf1      1.0000 0.13244  0.02530  0.62246  Biso   1.000  Hf
  Hf2      1.0000 0.63162  0.01159  0.12570  Biso   1.000  Hf
  Hf3      1.0000 0.63277  0.02159  0.62619  Biso   1.000  Hf
  Hf4      1.0000 0.14183  0.46330  0.38306  Biso   1.000  Hf
  Hf5      1.0000 0.14102  0.45813  0.86999  Biso   1.000  Hf
  Hf6      1.0000 0.63050  0.45925  0.37875  Biso   1.000  Hf
  Hf7      1.0000 0.63156  0.45182  0.87322  Biso   1.000  Hf
  Hf8      1.0000 0.36832  0.51154  0.12574  Biso   1.000  Hf
  Hf9      1.0000 0.36715  0.52154  0.62620  Biso   1.000  Hf
  La2      1.0000 0.87287  0.49916  0.12561  Biso   1.000  La
  Hf10     1.0000 0.86745  0.52523  0.62250  Biso   1.000  Hf
  Hf11     1.0000 0.36938  0.95921  0.37879  Biso   1.000  Hf
  Hf12     1.0000 0.36839  0.95176  0.87324  Biso   1.000  Hf
  Hf13     1.0000 0.85805  0.96326  0.38307  Biso   1.000  Hf
  Hf14     1.0000 0.85893  0.95813  0.87001  Biso   1.000  Hf
  Hf15     1.0000 0.07601  0.43428  0.19456  Biso   1.000  Hf
  Hf16     1.0000 0.03925  0.36876  0.68473  Biso   1.000  Hf
  Hf17     1.0000 0.53442  0.35462  0.19773  Biso   1.000  Hf
  Hf18     1.0000 0.53183  0.35018  0.69801  Biso   1.000  Hf
  Hf19     1.0000 0.03713  0.12402  0.43648  Biso   1.000  Hf
  Hf20     1.0000 0.00966  0.18795  0.93677  Biso   1.000  Hf
  Hf21     1.0000 0.53485  0.12220  0.45255  Biso   1.000  Hf
  Hf22     1.0000 0.52704  0.12498  0.94828  Biso   1.000  Hf
  Hf23     1.0000 0.46548  0.85470  0.19779  Biso   1.000  Hf
  Hf24     1.0000 0.46809  0.85018  0.69803  Biso   1.000  Hf
  Hf25     1.0000 0.92392  0.93417  0.19462  Biso   1.000  Hf
  Hf26     1.0000 0.96063  0.86874  0.68477  Biso   1.000  Hf
  Hf27     1.0000 0.46511  0.62230  0.45258  Biso   1.000  Hf
  Hf28     1.0000 0.47295  0.62501  0.94829  Biso   1.000  Hf
  Hf29     1.0000 0.96282  0.62411  0.43648  Biso   1.000  Hf
  Hf30     1.0000 0.99031  0.68793  0.93677  Biso   1.000  Hf
  Hf31     1.0000 0.28750  0.23148  0.25728  Biso   1.000  Hf
  Hf32     1.0000 0.26803  0.22151  0.74760  Biso   1.000  Hf
  Hf33     1.0000 0.74689  0.21060  0.26152  Biso   1.000  Hf
  Hf34     1.0000 0.76950  0.22878  0.74427  Biso   1.000  Hf
  Hf35     1.0000 0.27076  0.25350  0.50373  Biso   1.000  Hf
  Hf36     1.0000 0.27286  0.24382  0.99143  Biso   1.000  Hf
  Hf37     1.0000 0.76873  0.25966  0.50126  Biso   1.000  Hf
  Hf38     1.0000 0.75251  0.22604  0.99056  Biso   1.000  Hf
  Hf39     1.0000 0.23119  0.75968  0.50132  Biso   1.000  Hf
  Hf40     1.0000 0.24743  0.72598  0.99059  Biso   1.000  Hf
  Hf41     1.0000 0.72919  0.75346  0.50378  Biso   1.000  Hf
  Hf42     1.0000 0.72710  0.74381  0.99147  Biso   1.000  Hf
  Hf43     1.0000 0.25302  0.71055  0.26154  Biso   1.000  Hf
  Hf44     1.0000 0.23046  0.72875  0.74429  Biso   1.000  Hf
  Hf45     1.0000 0.71238  0.73162  0.25734  Biso   1.000  Hf
  Hf46     1.0000 0.73191  0.72152  0.74764  Biso   1.000  Hf
