data_image0
_cell_length_a       10.2828
_cell_length_b       10.4499
_cell_length_c       5.19601
_cell_angle_alpha    90
_cell_angle_beta     80
_cell_angle_gamma    90

_symmetry_space_group_name_H-M    "P 1"
_symmetry_int_tables_number       1

loop_
  _symmetry_equiv_pos_as_xyz
  'x, y, z'

loop_
  _atom_site_label
  _atom_site_occupancy
  _atom_site_fract_x
  _atom_site_fract_y
  _atom_site_fract_z
  _atom_site_thermal_displace_type
  _atom_site_B_iso_or_equiv
  _atom_site_type_symbol
  La1      1.0000 0.12213  0.01017  0.26556  Biso   1.000  La
  Hf1      1.0000 0.13801  0.52256  0.28139  Biso   1.000  Hf
  Hf2      1.0000 0.63602  0.01959  0.29952  Biso   1.000  Hf
  Hf3      1.0000 0.63276  0.52067  0.29458  Biso   1.000  Hf
  La2      1.0000 0.11338  0.23976  0.76824  Biso   1.000  La
  Hf4      1.0000 0.12925  0.72738  0.78416  Biso   1.000  Hf
  Hf5      1.0000 0.62724  0.23031  0.80227  Biso   1.000  Hf
  Hf6      1.0000 0.62402  0.72918  0.79727  Biso   1.000  Hf
  Hf7      1.0000 0.36346  0.26934  0.19510  Biso   1.000  Hf
  Hf8      1.0000 0.36241  0.76937  0.20203  Biso   1.000  Hf
  Hf9      1.0000 0.84868  0.27473  0.22964  Biso   1.000  Hf
  Hf10     1.0000 0.85749  0.76381  0.20947  Biso   1.000  Hf
  Hf11     1.0000 0.35350  0.48055  0.70477  Biso   1.000  Hf
  Hf12     1.0000 0.35480  0.98057  0.69790  Biso   1.000  Hf
  Hf13     1.0000 0.84872  0.48618  0.71206  Biso   1.000  Hf
  Hf14     1.0000 0.84004  0.97516  0.73236  Biso   1.000  Hf
  Hf15     1.0000 0.02924  0.20733  0.23402  Biso   1.000  Hf
  Hf16     1.0000 0.04142  0.68328  0.17675  Biso   1.000  Hf
  Hf17     1.0000 0.53828  0.17020  0.16216  Biso   1.000  Hf
  Hf18     1.0000 0.53466  0.66817  0.16011  Biso   1.000  Hf
  Hf19     1.0000 0.02038  0.04260  0.73669  Biso   1.000  Hf
  Hf20     1.0000 0.03258  0.56669  0.67949  Biso   1.000  Hf
  Hf21     1.0000 0.52942  0.07968  0.66494  Biso   1.000  Hf
  Hf22     1.0000 0.52576  0.58173  0.66291  Biso   1.000  Hf
  Hf23     1.0000 0.46566  0.41732  0.33742  Biso   1.000  Hf
  Hf24     1.0000 0.46351  0.91898  0.33191  Biso   1.000  Hf
  Hf25     1.0000 0.95219  0.43633  0.32968  Biso   1.000  Hf
  Hf26     1.0000 0.91916  0.92668  0.34500  Biso   1.000  Hf
  Hf27     1.0000 0.45453  0.33090  0.83463  Biso   1.000  Hf
  Hf28     1.0000 0.45694  0.83257  0.84018  Biso   1.000  Hf
  Hf29     1.0000 0.91020  0.32333  0.84798  Biso   1.000  Hf
  Hf30     1.0000 0.94341  0.81357  0.83245  Biso   1.000  Hf
  Hf31     1.0000 0.28632  0.12717  0.46486  Biso   1.000  Hf
  Hf32     1.0000 0.26891  0.62770  0.47460  Biso   1.000  Hf
  Hf33     1.0000 0.76517  0.13129  0.50238  Biso   1.000  Hf
  Hf34     1.0000 0.76635  0.63117  0.48706  Biso   1.000  Hf
  Hf35     1.0000 0.27747  0.12273  0.96761  Biso   1.000  Hf
  Hf36     1.0000 0.26008  0.62220  0.97741  Biso   1.000  Hf
  Hf37     1.0000 0.75644  0.11859  0.00511  Biso   1.000  Hf
  Hf38     1.0000 0.75755  0.61868  0.98982  Biso   1.000  Hf
  Hf39     1.0000 0.23616  0.39045  0.00835  Biso   1.000  Hf
  Hf40     1.0000 0.22301  0.86728  0.98903  Biso   1.000  Hf
  Hf41     1.0000 0.71074  0.38123  0.03086  Biso   1.000  Hf
  Hf42     1.0000 0.72461  0.87520  0.02478  Biso   1.000  Hf
  Hf43     1.0000 0.23174  0.38263  0.48619  Biso   1.000  Hf
  Hf44     1.0000 0.22749  0.85948  0.51111  Biso   1.000  Hf
  Hf45     1.0000 0.71574  0.37472  0.52762  Biso   1.000  Hf
  Hf46     1.0000 0.70216  0.86858  0.53344  Biso   1.000  Hf
