data_image0
_cell_length_a       10.2927
_cell_length_b       5.17896
_cell_length_c       10.5925
_cell_angle_alpha    90
_cell_angle_beta     80
_cell_angle_gamma    90

_symmetry_space_group_name_H-M    "P 1"
_symmetry_int_tables_number       1

loop_
  _symmetry_equiv_pos_as_xyz
  'x, y, z'

loop_
  _atom_site_label
  _atom_site_occupancy
  _atom_site_fract_x
  _atom_site_fract_y
  _atom_site_fract_z
  _atom_site_thermal_displace_type
  _atom_site_B_iso_or_equiv
  _atom_site_type_symbol
  La1      1.0000 0.12133  0.99970  0.13962  Biso   1.000  La
  Hf1      1.0000 0.12887  0.04268  0.64873  Biso   1.000  Hf
  Hf2      1.0000 0.64080  0.02681  0.14909  Biso   1.000  Hf
  Hf3      1.0000 0.62560  0.04596  0.64935  Biso   1.000  Hf
  Hf4      1.0000 0.12634  0.44899  0.40292  Biso   1.000  Hf
  Hf5      1.0000 0.12578  0.46096  0.89454  Biso   1.000  Hf
  Hf6      1.0000 0.62429  0.45664  0.40083  Biso   1.000  Hf
  Hf7      1.0000 0.63592  0.46147  0.89049  Biso   1.000  Hf
  La2      1.0000 0.37392  0.49969  0.11150  Biso   1.000  La
  Hf8      1.0000 0.34762  0.54269  0.60535  Biso   1.000  Hf
  Hf9      1.0000 0.85436  0.52683  0.10181  Biso   1.000  Hf
  Hf10     1.0000 0.85085  0.54607  0.60460  Biso   1.000  Hf
  Hf11     1.0000 0.35062  0.96091  0.35954  Biso   1.000  Hf
  Hf12     1.0000 0.35008  0.94916  0.85118  Biso   1.000  Hf
  Hf13     1.0000 0.84045  0.96143  0.36343  Biso   1.000  Hf
  Hf14     1.0000 0.85206  0.95679  0.85313  Biso   1.000  Hf
  Hf15     1.0000 0.03834  0.39695  0.08245  Biso   1.000  Hf
  Hf16     1.0000 0.02262  0.33952  0.58624  Biso   1.000  Hf
  Hf17     1.0000 0.58050  0.35786  0.07686  Biso   1.000  Hf
  Hf18     1.0000 0.52136  0.33789  0.58449  Biso   1.000  Hf
  Hf19     1.0000 0.00482  0.17639  0.34585  Biso   1.000  Hf
  Hf20     1.0000 0.02450  0.15770  0.83193  Biso   1.000  Hf
  Hf21     1.0000 0.52608  0.16687  0.33446  Biso   1.000  Hf
  Hf22     1.0000 0.52364  0.16848  0.83305  Biso   1.000  Hf
  Hf23     1.0000 0.45677  0.89734  0.16847  Biso   1.000  Hf
  Hf24     1.0000 0.45373  0.83966  0.66779  Biso   1.000  Hf
  Hf25     1.0000 0.91479  0.85757  0.17417  Biso   1.000  Hf
  Hf26     1.0000 0.95507  0.83781  0.66954  Biso   1.000  Hf
  Hf27     1.0000 0.45193  0.65752  0.42205  Biso   1.000  Hf
  Hf28     1.0000 0.47159  0.67624  0.90813  Biso   1.000  Hf
  Hf29     1.0000 0.95288  0.66860  0.42096  Biso   1.000  Hf
  Hf30     1.0000 0.95041  0.66720  0.91956  Biso   1.000  Hf
  Hf31     1.0000 0.24985  0.22857  0.26623  Biso   1.000  Hf
  Hf32     1.0000 0.26390  0.25981  0.73923  Biso   1.000  Hf
  Hf33     1.0000 0.76542  0.26329  0.24608  Biso   1.000  Hf
  Hf34     1.0000 0.76481  0.26044  0.73883  Biso   1.000  Hf
  Hf35     1.0000 0.26435  0.24287  0.49855  Biso   1.000  Hf
  Hf36     1.0000 0.25285  0.21835  0.97823  Biso   1.000  Hf
  Hf37     1.0000 0.75825  0.24600  0.49629  Biso   1.000  Hf
  Hf38     1.0000 0.77613  0.24107  0.98418  Biso   1.000  Hf
  Hf39     1.0000 0.22659  0.72874  0.98790  Biso   1.000  Hf
  Hf40     1.0000 0.21256  0.75983  0.51486  Biso   1.000  Hf
  Hf41     1.0000 0.72978  0.76340  0.00484  Biso   1.000  Hf
  Hf42     1.0000 0.71158  0.76040  0.51513  Biso   1.000  Hf
  Hf43     1.0000 0.22366  0.71810  0.27585  Biso   1.000  Hf
  Hf44     1.0000 0.21211  0.74295  0.75552  Biso   1.000  Hf
  Hf45     1.0000 0.70030  0.74075  0.26968  Biso   1.000  Hf
  Hf46     1.0000 0.71816  0.74606  0.75761  Biso   1.000  Hf
