data_image0
_cell_length_a       5.07242
_cell_length_b       10.3286
_cell_length_c       10.1834
_cell_angle_alpha    90
_cell_angle_beta     90
_cell_angle_gamma    90

_symmetry_space_group_name_H-M    "P 1"
_symmetry_int_tables_number       1

loop_
  _symmetry_equiv_pos_as_xyz
  'x, y, z'

loop_
  _atom_site_label
  _atom_site_occupancy
  _atom_site_fract_x
  _atom_site_fract_y
  _atom_site_fract_z
  _atom_site_thermal_displace_type
  _atom_site_B_iso_or_equiv
  _atom_site_type_symbol
  La1      1.0000 0.25514  0.00029  0.12547  Biso   1.000  La
  Hf1      1.0000 0.25519  0.00031  0.62547  Biso   1.000  Hf
  La2      1.0000 0.25516  0.50026  0.12547  Biso   1.000  La
  Hf2      1.0000 0.25491  0.50036  0.62547  Biso   1.000  Hf
  Hf3      1.0000 0.25519  0.25028  0.38039  Biso   1.000  Hf
  Hf4      1.0000 0.25520  0.25037  0.87052  Biso   1.000  Hf
  Hf5      1.0000 0.25511  0.75029  0.38037  Biso   1.000  Hf
  Hf6      1.0000 0.25517  0.75036  0.87058  Biso   1.000  Hf
  Hf7      1.0000 0.75521  0.25028  0.12545  Biso   1.000  Hf
  Hf8      1.0000 0.75518  0.25032  0.62537  Biso   1.000  Hf
  Hf9      1.0000 0.75513  0.75027  0.12543  Biso   1.000  Hf
  Hf10     1.0000 0.75511  0.75034  0.62550  Biso   1.000  Hf
  Hf11     1.0000 0.75517  0.00027  0.38042  Biso   1.000  Hf
  Hf12     1.0000 0.75525  0.00039  0.87049  Biso   1.000  Hf
  Hf13     1.0000 0.75506  0.50037  0.38044  Biso   1.000  Hf
  Hf14     1.0000 0.75506  0.50030  0.87049  Biso   1.000  Hf
  Hf15     1.0000 0.01022  0.15109  0.00066  Biso   1.000  Hf
  Hf16     1.0000 0.01598  0.14877  0.51257  Biso   1.000  Hf
  Hf17     1.0000 0.01036  0.65113  0.00074  Biso   1.000  Hf
  Hf18     1.0000 0.01584  0.64878  0.51261  Biso   1.000  Hf
  Hf19     1.0000 0.97954  0.11502  0.26633  Biso   1.000  Hf
  Hf20     1.0000 0.00573  0.10158  0.75550  Biso   1.000  Hf
  Hf21     1.0000 0.97971  0.61504  0.26641  Biso   1.000  Hf
  Hf22     1.0000 0.00545  0.60158  0.75556  Biso   1.000  Hf
  Hf23     1.0000 0.01044  0.34939  0.25022  Biso   1.000  Hf
  Hf24     1.0000 0.01574  0.35184  0.73835  Biso   1.000  Hf
  Hf25     1.0000 0.01022  0.84942  0.25023  Biso   1.000  Hf
  Hf26     1.0000 0.01601  0.85184  0.73832  Biso   1.000  Hf
  Hf27     1.0000 0.97969  0.38559  0.98457  Biso   1.000  Hf
  Hf28     1.0000 0.00536  0.39901  0.49541  Biso   1.000  Hf
  Hf29     1.0000 0.97962  0.88560  0.98453  Biso   1.000  Hf
  Hf30     1.0000 0.00559  0.89904  0.49538  Biso   1.000  Hf
  Hf31     1.0000 0.49988  0.15117  0.25020  Biso   1.000  Hf
  Hf32     1.0000 0.49420  0.14887  0.73824  Biso   1.000  Hf
  Hf33     1.0000 0.49996  0.65115  0.25021  Biso   1.000  Hf
  Hf34     1.0000 0.49398  0.64887  0.73823  Biso   1.000  Hf
  Hf35     1.0000 0.53058  0.11515  0.98447  Biso   1.000  Hf
  Hf36     1.0000 0.50453  0.10151  0.49531  Biso   1.000  Hf
  Hf37     1.0000 0.53068  0.61513  0.98448  Biso   1.000  Hf
  Hf38     1.0000 0.50430  0.60149  0.49533  Biso   1.000  Hf
  Hf39     1.0000 0.49989  0.34939  0.00072  Biso   1.000  Hf
  Hf40     1.0000 0.49393  0.35176  0.51269  Biso   1.000  Hf
  Hf41     1.0000 0.49981  0.84938  0.00074  Biso   1.000  Hf
  Hf42     1.0000 0.49410  0.85176  0.51266  Biso   1.000  Hf
  Hf43     1.0000 0.53071  0.38552  0.26643  Biso   1.000  Hf
  Hf44     1.0000 0.50420  0.39914  0.75564  Biso   1.000  Hf
  Hf45     1.0000 0.53045  0.88551  0.26643  Biso   1.000  Hf
  Hf46     1.0000 0.50453  0.89914  0.75559  Biso   1.000  Hf
