data_image0
_cell_length_a       5.05307
_cell_length_b       10.4876
_cell_length_c       10.1648
_cell_angle_alpha    90
_cell_angle_beta     90
_cell_angle_gamma    90

_symmetry_space_group_name_H-M    "P 1"
_symmetry_int_tables_number       1

loop_
  _symmetry_equiv_pos_as_xyz
  'x, y, z'

loop_
  _atom_site_label
  _atom_site_occupancy
  _atom_site_fract_x
  _atom_site_fract_y
  _atom_site_fract_z
  _atom_site_thermal_displace_type
  _atom_site_B_iso_or_equiv
  _atom_site_type_symbol
  La1      1.0000 0.24358  0.00024  0.11135  Biso   1.000  La
  Hf1      1.0000 0.24340  0.01281  0.62855  Biso   1.000  Hf
  Hf2      1.0000 0.27377  0.51536  0.12518  Biso   1.000  Hf
  Hf3      1.0000 0.24487  0.51469  0.63075  Biso   1.000  Hf
  La2      1.0000 0.23894  0.23806  0.36731  Biso   1.000  La
  Hf4      1.0000 0.24576  0.23153  0.87216  Biso   1.000  Hf
  Hf5      1.0000 0.25070  0.72994  0.38081  Biso   1.000  Hf
  Hf6      1.0000 0.25258  0.72587  0.87773  Biso   1.000  Hf
  Hf7      1.0000 0.72517  0.26769  0.11645  Biso   1.000  Hf
  Hf8      1.0000 0.70523  0.26469  0.62699  Biso   1.000  Hf
  Hf9      1.0000 0.72974  0.75995  0.13229  Biso   1.000  Hf
  Hf10     1.0000 0.70880  0.76068  0.62747  Biso   1.000  Hf
  Hf11     1.0000 0.71448  0.48559  0.37934  Biso   1.000  Hf
  Hf12     1.0000 0.71309  0.47912  0.87445  Biso   1.000  Hf
  Hf13     1.0000 0.70594  0.97566  0.38460  Biso   1.000  Hf
  Hf14     1.0000 0.71445  0.97819  0.86559  Biso   1.000  Hf
  Hf15     1.0000 0.08825  0.19952  0.14692  Biso   1.000  Hf
  Hf16     1.0000 0.05688  0.18702  0.68097  Biso   1.000  Hf
  Hf17     1.0000 0.06334  0.67516  0.20131  Biso   1.000  Hf
  Hf18     1.0000 0.04506  0.68006  0.70270  Biso   1.000  Hf
  Hf19     1.0000 0.04840  0.04606  0.45049  Biso   1.000  Hf
  Hf20     1.0000 0.05959  0.06231  0.90035  Biso   1.000  Hf
  Hf21     1.0000 0.05330  0.56265  0.45166  Biso   1.000  Hf
  Hf22     1.0000 0.04531  0.56430  0.94835  Biso   1.000  Hf
  Hf23     1.0000 0.95388  0.42660  0.20593  Biso   1.000  Hf
  Hf24     1.0000 0.90899  0.43204  0.69742  Biso   1.000  Hf
  Hf25     1.0000 0.89700  0.91807  0.21560  Biso   1.000  Hf
  Hf26     1.0000 0.90285  0.92570  0.69105  Biso   1.000  Hf
  Hf27     1.0000 0.86491  0.31603  0.45053  Biso   1.000  Hf
  Hf28     1.0000 0.90560  0.31602  0.93560  Biso   1.000  Hf
  Hf29     1.0000 0.90988  0.80627  0.45277  Biso   1.000  Hf
  Hf30     1.0000 0.95260  0.82337  0.96460  Biso   1.000  Hf
  Hf31     1.0000 0.59395  0.12130  0.25034  Biso   1.000  Hf
  Hf32     1.0000 0.52056  0.11521  0.74833  Biso   1.000  Hf
  Hf33     1.0000 0.53318  0.61572  0.25073  Biso   1.000  Hf
  Hf34     1.0000 0.51880  0.61339  0.75067  Biso   1.000  Hf
  Hf35     1.0000 0.53296  0.11910  0.51001  Biso   1.000  Hf
  Hf36     1.0000 0.53935  0.12762  0.98748  Biso   1.000  Hf
  Hf37     1.0000 0.51859  0.63233  0.50106  Biso   1.000  Hf
  Hf38     1.0000 0.54428  0.62886  0.00066  Biso   1.000  Hf
  Hf39     1.0000 0.44589  0.39404  0.50691  Biso   1.000  Hf
  Hf40     1.0000 0.43850  0.37705  0.99570  Biso   1.000  Hf
  Hf41     1.0000 0.43329  0.87531  0.50510  Biso   1.000  Hf
  Hf42     1.0000 0.48480  0.86117  0.99019  Biso   1.000  Hf
  Hf43     1.0000 0.48358  0.37924  0.23992  Biso   1.000  Hf
  Hf44     1.0000 0.43638  0.36515  0.75031  Biso   1.000  Hf
  Hf45     1.0000 0.45556  0.85139  0.25823  Biso   1.000  Hf
  Hf46     1.0000 0.43778  0.86232  0.74957  Biso   1.000  Hf
