data_image0
_cell_length_a       5.15752
_cell_length_b       10.2173
_cell_length_c       10.5986
_cell_angle_alpha    90
_cell_angle_beta     80
_cell_angle_gamma    90

_symmetry_space_group_name_H-M    "P 1"
_symmetry_int_tables_number       1

loop_
  _symmetry_equiv_pos_as_xyz
  'x, y, z'

loop_
  _atom_site_label
  _atom_site_occupancy
  _atom_site_fract_x
  _atom_site_fract_y
  _atom_site_fract_z
  _atom_site_thermal_displace_type
  _atom_site_B_iso_or_equiv
  _atom_site_type_symbol
  La1      1.0000 0.21712  0.00501  0.12812  Biso   1.000  La
  Hf1      1.0000 0.21111  0.01642  0.64835  Biso   1.000  Hf
  Hf2      1.0000 0.21690  0.51911  0.14641  Biso   1.000  Hf
  Hf3      1.0000 0.20882  0.52099  0.64422  Biso   1.000  Hf
  Hf4      1.0000 0.20663  0.22248  0.40075  Biso   1.000  Hf
  Hf5      1.0000 0.22566  0.22658  0.88209  Biso   1.000  Hf
  Hf6      1.0000 0.20779  0.72854  0.39732  Biso   1.000  Hf
  Hf7      1.0000 0.17271  0.74046  0.89473  Biso   1.000  Hf
  Hf8      1.0000 0.64822  0.26904  0.12671  Biso   1.000  Hf
  Hf9      1.0000 0.66723  0.27314  0.60805  Biso   1.000  Hf
  Hf10     1.0000 0.69954  0.75517  0.11402  Biso   1.000  Hf
  Hf11     1.0000 0.66449  0.76710  0.61145  Biso   1.000  Hf
  Hf12     1.0000 0.66273  0.47923  0.36050  Biso   1.000  Hf
  La2      1.0000 0.65648  0.49064  0.88067  Biso   1.000  La
  Hf13     1.0000 0.66336  0.97463  0.36456  Biso   1.000  Hf
  Hf14     1.0000 0.65541  0.97650  0.86235  Biso   1.000  Hf
  Hf15     1.0000 0.03229  0.19946  0.04267  Biso   1.000  Hf
  Hf16     1.0000 0.98618  0.14708  0.57102  Biso   1.000  Hf
  Hf17     1.0000 0.98717  0.62765  0.04290  Biso   1.000  Hf
  Hf18     1.0000 0.97903  0.64163  0.55815  Biso   1.000  Hf
  Hf19     1.0000 0.97846  0.10310  0.31796  Biso   1.000  Hf
  Hf20     1.0000 0.99581  0.09102  0.82172  Biso   1.000  Hf
  Hf21     1.0000 0.98813  0.60413  0.30764  Biso   1.000  Hf
  Hf22     1.0000 0.98833  0.62028  0.79706  Biso   1.000  Hf
  Hf23     1.0000 0.87805  0.40459  0.18711  Biso   1.000  Hf
  Hf24     1.0000 0.89554  0.39250  0.69081  Biso   1.000  Hf
  Hf25     1.0000 0.88385  0.87539  0.21169  Biso   1.000  Hf
  Hf26     1.0000 0.88414  0.89152  0.70114  Biso   1.000  Hf
  Hf27     1.0000 0.88771  0.34856  0.43777  Biso   1.000  Hf
  Hf28     1.0000 0.84164  0.29621  0.96609  Biso   1.000  Hf
  Hf29     1.0000 0.89316  0.85394  0.45057  Biso   1.000  Hf
  Hf30     1.0000 0.88509  0.86799  0.96584  Biso   1.000  Hf
  Hf31     1.0000 0.49833  0.12770  0.24959  Biso   1.000  Hf
  Hf32     1.0000 0.48937  0.12339  0.73936  Biso   1.000  Hf
  Hf33     1.0000 0.48564  0.61989  0.24194  Biso   1.000  Hf
  Hf34     1.0000 0.46883  0.63042  0.73910  Biso   1.000  Hf
  Hf35     1.0000 0.47462  0.11896  0.49615  Biso   1.000  Hf
  Hf36     1.0000 0.44653  0.12336  0.98769  Biso   1.000  Hf
  Hf37     1.0000 0.47798  0.62340  0.48904  Biso   1.000  Hf
  Hf38     1.0000 0.47298  0.62908  0.00338  Biso   1.000  Hf
  Hf39     1.0000 0.42737  0.37230  0.02113  Biso   1.000  Hf
  Hf40     1.0000 0.39924  0.37666  0.51271  Biso   1.000  Hf
  Hf41     1.0000 0.39927  0.86653  0.00537  Biso   1.000  Hf
  Hf42     1.0000 0.39429  0.87227  0.51973  Biso   1.000  Hf
  Hf43     1.0000 0.38454  0.37224  0.26948  Biso   1.000  Hf
  Hf44     1.0000 0.37569  0.36792  0.75924  Biso   1.000  Hf
  Hf45     1.0000 0.40337  0.86524  0.26969  Biso   1.000  Hf
  Hf46     1.0000 0.38659  0.87574  0.76685  Biso   1.000  Hf
