data_image0
_cell_length_a       10.302
_cell_length_b       5.17265
_cell_length_c       10.4608
_cell_angle_alpha    90
_cell_angle_beta     80
_cell_angle_gamma    90

_symmetry_space_group_name_H-M    "P 1"
_symmetry_int_tables_number       1

loop_
  _symmetry_equiv_pos_as_xyz
  'x, y, z'

loop_
  _atom_site_label
  _atom_site_occupancy
  _atom_site_fract_x
  _atom_site_fract_y
  _atom_site_fract_z
  _atom_site_thermal_displace_type
  _atom_site_B_iso_or_equiv
  _atom_site_type_symbol
  La1      1.0000 0.12382  0.00323  0.13088  Biso   1.000  La
  Hf1      1.0000 0.11845  0.04437  0.64853  Biso   1.000  Hf
  Hf2      1.0000 0.63155  0.01702  0.14736  Biso   1.000  Hf
  Hf3      1.0000 0.62313  0.04237  0.65135  Biso   1.000  Hf
  Hf4      1.0000 0.12468  0.45267  0.39447  Biso   1.000  Hf
  Hf5      1.0000 0.12571  0.46919  0.89167  Biso   1.000  Hf
  Hf6      1.0000 0.61392  0.45608  0.40528  Biso   1.000  Hf
  Hf7      1.0000 0.62017  0.45612  0.90138  Biso   1.000  Hf
  Hf8      1.0000 0.36110  0.51699  0.10377  Biso   1.000  Hf
  Hf9      1.0000 0.34017  0.54239  0.60443  Biso   1.000  Hf
  La2      1.0000 0.86878  0.50341  0.12027  Biso   1.000  La
  Hf10     1.0000 0.84486  0.54448  0.60721  Biso   1.000  Hf
  Hf11     1.0000 0.34289  0.95597  0.35440  Biso   1.000  Hf
  Hf12     1.0000 0.34912  0.95621  0.85052  Biso   1.000  Hf
  Hf13     1.0000 0.83731  0.96915  0.36410  Biso   1.000  Hf
  Hf14     1.0000 0.83836  0.95294  0.86133  Biso   1.000  Hf
  Hf15     1.0000 0.08606  0.44421  0.08871  Biso   1.000  Hf
  Hf16     1.0000 0.01877  0.34740  0.58500  Biso   1.000  Hf
  Hf17     1.0000 0.53455  0.32237  0.07959  Biso   1.000  Hf
  Hf18     1.0000 0.51264  0.33072  0.58632  Biso   1.000  Hf
  Hf19     1.0000 0.01053  0.17324  0.33911  Biso   1.000  Hf
  Hf20     1.0000 0.01516  0.16296  0.84357  Biso   1.000  Hf
  Hf21     1.0000 0.51090  0.16315  0.33514  Biso   1.000  Hf
  Hf22     1.0000 0.51938  0.15964  0.83122  Biso   1.000  Hf
  Hf23     1.0000 0.45790  0.82242  0.17155  Biso   1.000  Hf
  Hf24     1.0000 0.45045  0.83078  0.66948  Biso   1.000  Hf
  Hf25     1.0000 0.90631  0.94448  0.16237  Biso   1.000  Hf
  Hf26     1.0000 0.94438  0.84746  0.67077  Biso   1.000  Hf
  Hf27     1.0000 0.44386  0.65958  0.42455  Biso   1.000  Hf
  Hf28     1.0000 0.45235  0.66329  0.92055  Biso   1.000  Hf
  Hf29     1.0000 0.94803  0.66289  0.41223  Biso   1.000  Hf
  Hf30     1.0000 0.95264  0.67340  0.91664  Biso   1.000  Hf
  Hf31     1.0000 0.26988  0.24760  0.24497  Biso   1.000  Hf
  Hf32     1.0000 0.25527  0.25849  0.73843  Biso   1.000  Hf
  Hf33     1.0000 0.73503  0.24295  0.26456  Biso   1.000  Hf
  Hf34     1.0000 0.75940  0.26140  0.74473  Biso   1.000  Hf
  Hf35     1.0000 0.25462  0.24136  0.49333  Biso   1.000  Hf
  Hf36     1.0000 0.26369  0.24252  0.97930  Biso   1.000  Hf
  Hf37     1.0000 0.75527  0.24760  0.50075  Biso   1.000  Hf
  Hf38     1.0000 0.73970  0.21737  0.99418  Biso   1.000  Hf
  Hf39     1.0000 0.22815  0.74310  0.99125  Biso   1.000  Hf
  Hf40     1.0000 0.20380  0.76128  0.51107  Biso   1.000  Hf
  Hf41     1.0000 0.72263  0.74765  0.00615  Biso   1.000  Hf
  Hf42     1.0000 0.70787  0.75847  0.51738  Biso   1.000  Hf
  Hf43     1.0000 0.22349  0.71706  0.26158  Biso   1.000  Hf
  Hf44     1.0000 0.20786  0.74766  0.75501  Biso   1.000  Hf
  Hf45     1.0000 0.69943  0.74236  0.27645  Biso   1.000  Hf
  Hf46     1.0000 0.70853  0.74148  0.76239  Biso   1.000  Hf
