data_image0
_cell_length_a       5.1295
_cell_length_b       10.3979
_cell_length_c       10.5489
_cell_angle_alpha    90
_cell_angle_beta     80
_cell_angle_gamma    90

_symmetry_space_group_name_H-M    "P 1"
_symmetry_int_tables_number       1

loop_
  _symmetry_equiv_pos_as_xyz
  'x, y, z'

loop_
  _atom_site_label
  _atom_site_occupancy
  _atom_site_fract_x
  _atom_site_fract_y
  _atom_site_fract_z
  _atom_site_thermal_displace_type
  _atom_site_B_iso_or_equiv
  _atom_site_type_symbol
  La1      1.0000 0.25289  0.99766  0.13732  Biso   1.000  La
  Hf1      1.0000 0.25116  0.02338  0.65082  Biso   1.000  Hf
  Hf2      1.0000 0.27595  0.51739  0.14706  Biso   1.000  Hf
  Hf3      1.0000 0.25141  0.52204  0.64836  Biso   1.000  Hf
  Hf4      1.0000 0.24423  0.23042  0.40240  Biso   1.000  Hf
  Hf5      1.0000 0.25332  0.23509  0.89011  Biso   1.000  Hf
  Hf6      1.0000 0.25192  0.72427  0.40164  Biso   1.000  Hf
  Hf7      1.0000 0.25731  0.72773  0.89639  Biso   1.000  Hf
  La2      1.0000 0.72520  0.25658  0.11036  Biso   1.000  La
  Hf8      1.0000 0.69332  0.27350  0.60565  Biso   1.000  Hf
  Hf9      1.0000 0.72775  0.75931  0.10525  Biso   1.000  Hf
  Hf10     1.0000 0.69764  0.77218  0.60520  Biso   1.000  Hf
  Hf11     1.0000 0.70211  0.48219  0.35652  Biso   1.000  Hf
  Hf12     1.0000 0.69499  0.47999  0.85424  Biso   1.000  Hf
  Hf13     1.0000 0.68063  0.97996  0.36413  Biso   1.000  Hf
  Hf14     1.0000 0.70467  0.97285  0.85331  Biso   1.000  Hf
  Hf15     1.0000 0.14763  0.19987  0.07702  Biso   1.000  Hf
  Hf16     1.0000 0.03923  0.16958  0.58498  Biso   1.000  Hf
  Hf17     1.0000 0.09505  0.68034  0.08600  Biso   1.000  Hf
  Hf18     1.0000 0.04409  0.66987  0.58520  Biso   1.000  Hf
  Hf19     1.0000 0.00693  0.09063  0.34037  Biso   1.000  Hf
  Hf20     1.0000 0.04271  0.08193  0.83367  Biso   1.000  Hf
  Hf21     1.0000 0.05318  0.58226  0.33626  Biso   1.000  Hf
  Hf22     1.0000 0.04355  0.58234  0.83291  Biso   1.000  Hf
  Hf23     1.0000 0.91678  0.43936  0.17393  Biso   1.000  Hf
  Hf24     1.0000 0.90404  0.42270  0.66713  Biso   1.000  Hf
  Hf25     1.0000 0.83128  0.93765  0.16647  Biso   1.000  Hf
  Hf26     1.0000 0.90951  0.91629  0.67218  Biso   1.000  Hf
  Hf27     1.0000 0.89669  0.33203  0.42179  Biso   1.000  Hf
  Hf28     1.0000 0.90370  0.33159  0.90390  Biso   1.000  Hf
  Hf29     1.0000 0.90947  0.83208  0.42118  Biso   1.000  Hf
  Hf30     1.0000 0.93000  0.83947  0.92946  Biso   1.000  Hf
  Hf31     1.0000 0.49201  0.12085  0.26895  Biso   1.000  Hf
  Hf32     1.0000 0.52416  0.13113  0.73776  Biso   1.000  Hf
  Hf33     1.0000 0.53898  0.62392  0.24213  Biso   1.000  Hf
  Hf34     1.0000 0.52630  0.63080  0.74131  Biso   1.000  Hf
  Hf35     1.0000 0.51661  0.12315  0.50023  Biso   1.000  Hf
  Hf36     1.0000 0.51225  0.11122  0.97271  Biso   1.000  Hf
  Hf37     1.0000 0.52738  0.62243  0.49410  Biso   1.000  Hf
  Hf38     1.0000 0.52578  0.61975  0.99322  Biso   1.000  Hf
  Hf39     1.0000 0.40611  0.39152  0.00107  Biso   1.000  Hf
  Hf40     1.0000 0.42018  0.38089  0.51343  Biso   1.000  Hf
  Hf41     1.0000 0.45624  0.86023  0.99670  Biso   1.000  Hf
  Hf42     1.0000 0.42294  0.88070  0.51607  Biso   1.000  Hf
  Hf43     1.0000 0.41623  0.37687  0.27005  Biso   1.000  Hf
  Hf44     1.0000 0.42735  0.37473  0.75655  Biso   1.000  Hf
  Hf45     1.0000 0.44208  0.85207  0.27019  Biso   1.000  Hf
  Hf46     1.0000 0.42654  0.87128  0.75912  Biso   1.000  Hf
