data_image0
_cell_length_a       5.06267
_cell_length_b       10.4549
_cell_length_c       10.1893
_cell_angle_alpha    90
_cell_angle_beta     90
_cell_angle_gamma    90

_symmetry_space_group_name_H-M    "P 1"
_symmetry_int_tables_number       1

loop_
  _symmetry_equiv_pos_as_xyz
  'x, y, z'

loop_
  _atom_site_label
  _atom_site_occupancy
  _atom_site_fract_x
  _atom_site_fract_y
  _atom_site_fract_z
  _atom_site_thermal_displace_type
  _atom_site_B_iso_or_equiv
  _atom_site_type_symbol
  La1      1.0000 0.24352  0.99221  0.12176  Biso   1.000  La
  Hf1      1.0000 0.27018  0.00747  0.62343  Biso   1.000  Hf
  Hf2      1.0000 0.27253  0.51271  0.12816  Biso   1.000  Hf
  Hf3      1.0000 0.26855  0.50825  0.62436  Biso   1.000  Hf
  Hf4      1.0000 0.27809  0.22933  0.38156  Biso   1.000  Hf
  Hf5      1.0000 0.26590  0.22543  0.86391  Biso   1.000  Hf
  Hf6      1.0000 0.26834  0.72333  0.38278  Biso   1.000  Hf
  Hf7      1.0000 0.27443  0.71924  0.87534  Biso   1.000  Hf
  La2      1.0000 0.73863  0.25164  0.11767  Biso   1.000  La
  Hf8      1.0000 0.73819  0.26129  0.62438  Biso   1.000  Hf
  Hf9      1.0000 0.73476  0.75278  0.12481  Biso   1.000  Hf
  Hf10     1.0000 0.73474  0.75678  0.62529  Biso   1.000  Hf
  Hf11     1.0000 0.73070  0.47668  0.37621  Biso   1.000  Hf
  Hf12     1.0000 0.72975  0.47569  0.87159  Biso   1.000  Hf
  Hf13     1.0000 0.72512  0.97630  0.38622  Biso   1.000  Hf
  Hf14     1.0000 0.72680  0.97008  0.86839  Biso   1.000  Hf
  Hf15     1.0000 0.11444  0.18940  0.20646  Biso   1.000  Hf
  Hf16     1.0000 0.07882  0.17655  0.68544  Biso   1.000  Hf
  Hf17     1.0000 0.08268  0.68996  0.19971  Biso   1.000  Hf
  Hf18     1.0000 0.06647  0.67425  0.69918  Biso   1.000  Hf
  Hf19     1.0000 0.07414  0.05733  0.44673  Biso   1.000  Hf
  Hf20     1.0000 0.01933  0.08174  0.93924  Biso   1.000  Hf
  Hf21     1.0000 0.07266  0.55992  0.44831  Biso   1.000  Hf
  Hf22     1.0000 0.05600  0.56585  0.95219  Biso   1.000  Hf
  Hf23     1.0000 0.93685  0.44588  0.20217  Biso   1.000  Hf
  Hf24     1.0000 0.92841  0.43009  0.68731  Biso   1.000  Hf
  Hf25     1.0000 0.85410  0.93481  0.19755  Biso   1.000  Hf
  Hf26     1.0000 0.92869  0.92328  0.69516  Biso   1.000  Hf
  Hf27     1.0000 0.92808  0.30962  0.44392  Biso   1.000  Hf
  Hf28     1.0000 0.94045  0.32079  0.91911  Biso   1.000  Hf
  Hf29     1.0000 0.93485  0.80884  0.45113  Biso   1.000  Hf
  Hf30     1.0000 0.97946  0.82257  0.95888  Biso   1.000  Hf
  Hf31     1.0000 0.53882  0.10759  0.27255  Biso   1.000  Hf
  Hf32     1.0000 0.54576  0.10879  0.74275  Biso   1.000  Hf
  Hf33     1.0000 0.54418  0.60924  0.24929  Biso   1.000  Hf
  Hf34     1.0000 0.53843  0.60958  0.74741  Biso   1.000  Hf
  Hf35     1.0000 0.54370  0.12419  0.50714  Biso   1.000  Hf
  Hf36     1.0000 0.50645  0.10637  0.97587  Biso   1.000  Hf
  Hf37     1.0000 0.54280  0.62475  0.50031  Biso   1.000  Hf
  Hf38     1.0000 0.53981  0.61514  0.99881  Biso   1.000  Hf
  Hf39     1.0000 0.46639  0.37597  0.50299  Biso   1.000  Hf
  Hf40     1.0000 0.44747  0.37464  0.99071  Biso   1.000  Hf
  Hf41     1.0000 0.45779  0.87354  0.50238  Biso   1.000  Hf
  Hf42     1.0000 0.50615  0.84988  0.98886  Biso   1.000  Hf
  Hf43     1.0000 0.44631  0.37351  0.25896  Biso   1.000  Hf
  Hf44     1.0000 0.46300  0.36109  0.74505  Biso   1.000  Hf
  Hf45     1.0000 0.47981  0.84135  0.25842  Biso   1.000  Hf
  Hf46     1.0000 0.45596  0.85748  0.74601  Biso   1.000  Hf
