data_image0
_cell_length_a       5.04162
_cell_length_b       10.4849
_cell_length_c       10.2013
_cell_angle_alpha    90
_cell_angle_beta     90
_cell_angle_gamma    90

_symmetry_space_group_name_H-M    "P 1"
_symmetry_int_tables_number       1

loop_
  _symmetry_equiv_pos_as_xyz
  'x, y, z'

loop_
  _atom_site_label
  _atom_site_occupancy
  _atom_site_fract_x
  _atom_site_fract_y
  _atom_site_fract_z
  _atom_site_thermal_displace_type
  _atom_site_B_iso_or_equiv
  _atom_site_type_symbol
  La1      1.0000 0.24306  0.00607  0.11964  Biso   1.000  La
  Hf1      1.0000 0.25429  0.03134  0.63500  Biso   1.000  Hf
  Hf2      1.0000 0.25993  0.51114  0.12081  Biso   1.000  Hf
  Hf3      1.0000 0.25843  0.52625  0.62312  Biso   1.000  Hf
  Hf4      1.0000 0.25549  0.24380  0.37676  Biso   1.000  Hf
  Hf5      1.0000 0.25483  0.24968  0.87359  Biso   1.000  Hf
  La2      1.0000 0.24860  0.74639  0.37424  Biso   1.000  La
  Hf6      1.0000 0.25301  0.74221  0.86881  Biso   1.000  Hf
  Hf7      1.0000 0.72026  0.26780  0.12905  Biso   1.000  Hf
  Hf8      1.0000 0.72477  0.28048  0.62662  Biso   1.000  Hf
  Hf9      1.0000 0.73617  0.73871  0.09885  Biso   1.000  Hf
  Hf10     1.0000 0.71380  0.77869  0.62554  Biso   1.000  Hf
  Hf11     1.0000 0.71923  0.48779  0.37662  Biso   1.000  Hf
  Hf12     1.0000 0.71909  0.49047  0.87091  Biso   1.000  Hf
  Hf13     1.0000 0.71965  0.00949  0.39992  Biso   1.000  Hf
  Hf14     1.0000 0.70672  0.99603  0.87048  Biso   1.000  Hf
  Hf15     1.0000 0.04187  0.18875  0.20787  Biso   1.000  Hf
  Hf16     1.0000 0.06262  0.20083  0.69215  Biso   1.000  Hf
  Hf17     1.0000 0.09220  0.69156  0.16492  Biso   1.000  Hf
  Hf18     1.0000 0.05555  0.69606  0.69074  Biso   1.000  Hf
  Hf19     1.0000 0.06787  0.07772  0.45288  Biso   1.000  Hf
  Hf20     1.0000 0.05210  0.08738  0.92384  Biso   1.000  Hf
  Hf21     1.0000 0.05076  0.56497  0.45031  Biso   1.000  Hf
  Hf22     1.0000 0.03864  0.58394  0.94358  Biso   1.000  Hf
  Hf23     1.0000 0.92634  0.43661  0.19647  Biso   1.000  Hf
  Hf24     1.0000 0.92230  0.44420  0.69848  Biso   1.000  Hf
  Hf25     1.0000 0.82471  0.92487  0.20505  Biso   1.000  Hf
  Hf26     1.0000 0.90412  0.94690  0.69724  Biso   1.000  Hf
  Hf27     1.0000 0.91350  0.32271  0.44735  Biso   1.000  Hf
  Hf28     1.0000 0.92136  0.33280  0.95049  Biso   1.000  Hf
  Hf29     1.0000 0.88167  0.83678  0.45631  Biso   1.000  Hf
  Hf30     1.0000 0.94007  0.83968  0.94447  Biso   1.000  Hf
  Hf31     1.0000 0.53276  0.12584  0.26226  Biso   1.000  Hf
  Hf32     1.0000 0.52970  0.13152  0.75199  Biso   1.000  Hf
  Hf33     1.0000 0.54947  0.60995  0.23598  Biso   1.000  Hf
  Hf34     1.0000 0.52072  0.62772  0.74826  Biso   1.000  Hf
  Hf35     1.0000 0.52334  0.14937  0.50846  Biso   1.000  Hf
  Hf36     1.0000 0.53202  0.14936  0.99828  Biso   1.000  Hf
  Hf37     1.0000 0.54615  0.63278  0.50482  Biso   1.000  Hf
  Hf38     1.0000 0.51749  0.63453  0.98706  Biso   1.000  Hf
  Hf39     1.0000 0.44510  0.39142  0.49876  Biso   1.000  Hf
  Hf40     1.0000 0.44347  0.39574  0.99726  Biso   1.000  Hf
  Hf41     1.0000 0.43988  0.90850  0.51025  Biso   1.000  Hf
  Hf42     1.0000 0.47018  0.87890  0.99233  Biso   1.000  Hf
  Hf43     1.0000 0.45070  0.36936  0.24823  Biso   1.000  Hf
  Hf44     1.0000 0.45098  0.37916  0.74749  Biso   1.000  Hf
  Hf45     1.0000 0.57455  0.87020  0.24474  Biso   1.000  Hf
  Hf46     1.0000 0.43754  0.88013  0.74986  Biso   1.000  Hf
