data_image0
_cell_length_a       10.2053
_cell_length_b       5.22557
_cell_length_c       10.5431
_cell_angle_alpha    90
_cell_angle_beta     80
_cell_angle_gamma    90

_symmetry_space_group_name_H-M    "P 1"
_symmetry_int_tables_number       1

loop_
  _symmetry_equiv_pos_as_xyz
  'x, y, z'

loop_
  _atom_site_label
  _atom_site_occupancy
  _atom_site_fract_x
  _atom_site_fract_y
  _atom_site_fract_z
  _atom_site_thermal_displace_type
  _atom_site_B_iso_or_equiv
  _atom_site_type_symbol
  La1      1.0000 0.12440  0.02149  0.13918  Biso   1.000  La
  Hf1      1.0000 0.12026  0.06240  0.64960  Biso   1.000  Hf
  Hf2      1.0000 0.63040  0.03690  0.14120  Biso   1.000  Hf
  Hf3      1.0000 0.61944  0.07133  0.65187  Biso   1.000  Hf
  Hf4      1.0000 0.13124  0.47641  0.40291  Biso   1.000  Hf
  Hf5      1.0000 0.12280  0.48172  0.89251  Biso   1.000  Hf
  La2      1.0000 0.61972  0.49595  0.38816  Biso   1.000  La
  Hf6      1.0000 0.61629  0.48158  0.89505  Biso   1.000  Hf
  Hf7      1.0000 0.36030  0.52917  0.10280  Biso   1.000  Hf
  Hf8      1.0000 0.34029  0.55935  0.60990  Biso   1.000  Hf
  Hf9      1.0000 0.85948  0.50004  0.08436  Biso   1.000  Hf
  Hf10     1.0000 0.84776  0.56716  0.60959  Biso   1.000  Hf
  Hf11     1.0000 0.34722  0.96836  0.35577  Biso   1.000  Hf
  Hf12     1.0000 0.34419  0.97398  0.85487  Biso   1.000  Hf
  Hf13     1.0000 0.85300  0.00543  0.37998  Biso   1.000  Hf
  Hf14     1.0000 0.84087  0.97528  0.85348  Biso   1.000  Hf
  Hf15     1.0000 0.04413  0.40269  0.08049  Biso   1.000  Hf
  Hf16     1.0000 0.02309  0.37349  0.59250  Biso   1.000  Hf
  Hf17     1.0000 0.53969  0.33995  0.08301  Biso   1.000  Hf
  Hf18     1.0000 0.51174  0.35473  0.59326  Biso   1.000  Hf
  Hf19     1.0000 0.02457  0.18293  0.34744  Biso   1.000  Hf
  Hf20     1.0000 0.01674  0.16964  0.84400  Biso   1.000  Hf
  Hf21     1.0000 0.54046  0.09078  0.33270  Biso   1.000  Hf
  Hf22     1.0000 0.51866  0.17337  0.83754  Biso   1.000  Hf
  Hf23     1.0000 0.46327  0.82470  0.16723  Biso   1.000  Hf
  Hf24     1.0000 0.44709  0.85617  0.67070  Biso   1.000  Hf
  Hf25     1.0000 0.90276  0.84191  0.18005  Biso   1.000  Hf
  Hf26     1.0000 0.94261  0.87746  0.67047  Biso   1.000  Hf
  Hf27     1.0000 0.41632  0.64450  0.42300  Biso   1.000  Hf
  Hf28     1.0000 0.44836  0.68049  0.92059  Biso   1.000  Hf
  Hf29     1.0000 0.95367  0.68492  0.42280  Biso   1.000  Hf
  Hf30     1.0000 0.94102  0.67302  0.91210  Biso   1.000  Hf
  Hf31     1.0000 0.27745  0.26074  0.24349  Biso   1.000  Hf
  Hf32     1.0000 0.25446  0.27651  0.74293  Biso   1.000  Hf
  Hf33     1.0000 0.77699  0.25781  0.23200  Biso   1.000  Hf
  Hf34     1.0000 0.75690  0.28302  0.74555  Biso   1.000  Hf
  Hf35     1.0000 0.25859  0.24825  0.49576  Biso   1.000  Hf
  Hf36     1.0000 0.26066  0.26353  0.98468  Biso   1.000  Hf
  Hf37     1.0000 0.76647  0.27254  0.50450  Biso   1.000  Hf
  Hf38     1.0000 0.75061  0.25111  0.98873  Biso   1.000  Hf
  Hf39     1.0000 0.21503  0.75846  0.99873  Biso   1.000  Hf
  Hf40     1.0000 0.19734  0.78141  0.51658  Biso   1.000  Hf
  Hf41     1.0000 0.72471  0.74820  0.00836  Biso   1.000  Hf
  Hf42     1.0000 0.71708  0.80164  0.51883  Biso   1.000  Hf
  Hf43     1.0000 0.22530  0.72909  0.26203  Biso   1.000  Hf
  Hf44     1.0000 0.20480  0.76309  0.75998  Biso   1.000  Hf
  Hf45     1.0000 0.76714  0.78067  0.24050  Biso   1.000  Hf
  Hf46     1.0000 0.70579  0.75982  0.76291  Biso   1.000  Hf
