data_image0
_cell_length_a       10.1643
_cell_length_b       10.4428
_cell_length_c       5.09066
_cell_angle_alpha    90
_cell_angle_beta     90
_cell_angle_gamma    90

_symmetry_space_group_name_H-M    "P 1"
_symmetry_int_tables_number       1

loop_
  _symmetry_equiv_pos_as_xyz
  'x, y, z'

loop_
  _atom_site_label
  _atom_site_occupancy
  _atom_site_fract_x
  _atom_site_fract_y
  _atom_site_fract_z
  _atom_site_thermal_displace_type
  _atom_site_B_iso_or_equiv
  _atom_site_type_symbol
  La1      1.0000 0.11987  0.01184  0.25087  Biso   1.000  La
  Hf1      1.0000 0.14854  0.52202  0.25198  Biso   1.000  Hf
  Hf2      1.0000 0.63037  0.01513  0.25004  Biso   1.000  Hf
  Hf3      1.0000 0.63441  0.51408  0.24803  Biso   1.000  Hf
  Hf4      1.0000 0.15151  0.23725  0.74808  Biso   1.000  Hf
  Hf5      1.0000 0.14958  0.73715  0.75996  Biso   1.000  Hf
  Hf6      1.0000 0.63358  0.23362  0.74885  Biso   1.000  Hf
  Hf7      1.0000 0.63574  0.73187  0.75195  Biso   1.000  Hf
  Hf8      1.0000 0.37026  0.26611  0.24884  Biso   1.000  Hf
  Hf9      1.0000 0.37793  0.76779  0.25200  Biso   1.000  Hf
  Hf10     1.0000 0.85230  0.26246  0.24795  Biso   1.000  Hf
  Hf11     1.0000 0.86410  0.76253  0.25989  Biso   1.000  Hf
  Hf12     1.0000 0.37348  0.48462  0.75012  Biso   1.000  Hf
  Hf13     1.0000 0.37931  0.98555  0.74812  Biso   1.000  Hf
  La2      1.0000 0.88404  0.48795  0.75079  Biso   1.000  La
  Hf14     1.0000 0.86520  0.97759  0.75193  Biso   1.000  Hf
  Hf15     1.0000 0.02450  0.20817  0.42123  Biso   1.000  Hf
  Hf16     1.0000 0.03229  0.67442  0.42141  Biso   1.000  Hf
  Hf17     1.0000 0.53767  0.18376  0.38256  Biso   1.000  Hf
  Hf18     1.0000 0.53367  0.67815  0.40324  Biso   1.000  Hf
  Hf19     1.0000 0.03438  0.06831  0.81012  Biso   1.000  Hf
  Hf20     1.0000 0.06341  0.57996  0.91401  Biso   1.000  Hf
  Hf21     1.0000 0.53746  0.06691  0.88819  Biso   1.000  Hf
  Hf22     1.0000 0.53920  0.56427  0.89266  Biso   1.000  Hf
  Hf23     1.0000 0.46639  0.43284  0.38811  Biso   1.000  Hf
  Hf24     1.0000 0.47448  0.93545  0.39264  Biso   1.000  Hf
  Hf25     1.0000 0.96961  0.43129  0.31071  Biso   1.000  Hf
  Hf26     1.0000 0.95033  0.91968  0.41382  Biso   1.000  Hf
  Hf27     1.0000 0.46621  0.31596  0.88258  Biso   1.000  Hf
  Hf28     1.0000 0.48004  0.82158  0.90325  Biso   1.000  Hf
  Hf29     1.0000 0.97931  0.29160  0.92115  Biso   1.000  Hf
  Hf30     1.0000 0.98139  0.82515  0.92124  Biso   1.000  Hf
  Hf31     1.0000 0.28155  0.12796  0.50532  Biso   1.000  Hf
  Hf32     1.0000 0.27517  0.61882  0.50813  Biso   1.000  Hf
  Hf33     1.0000 0.76585  0.11415  0.49697  Biso   1.000  Hf
  Hf34     1.0000 0.76309  0.62236  0.48450  Biso   1.000  Hf
  Hf35     1.0000 0.27753  0.13574  0.99231  Biso   1.000  Hf
  Hf36     1.0000 0.28811  0.63279  0.00839  Biso   1.000  Hf
  Hf37     1.0000 0.77070  0.12824  0.99577  Biso   1.000  Hf
  Hf38     1.0000 0.76354  0.63900  0.00451  Biso   1.000  Hf
  Hf39     1.0000 0.23812  0.38557  0.99722  Biso   1.000  Hf
  Hf40     1.0000 0.25057  0.87731  0.98464  Biso   1.000  Hf
  Hf41     1.0000 0.72225  0.37172  0.00530  Biso   1.000  Hf
  Hf42     1.0000 0.73851  0.88081  0.00814  Biso   1.000  Hf
  Hf43     1.0000 0.23321  0.37151  0.49594  Biso   1.000  Hf
  Hf44     1.0000 0.25010  0.86065  0.50466  Biso   1.000  Hf
  Hf45     1.0000 0.72637  0.36401  0.49228  Biso   1.000  Hf
  Hf46     1.0000 0.72557  0.86687  0.50842  Biso   1.000  Hf
