data_image0
_cell_length_a       10.2267
_cell_length_b       10.4679
_cell_length_c       5.277
_cell_angle_alpha    90
_cell_angle_beta     80
_cell_angle_gamma    90

_symmetry_space_group_name_H-M    "P 1"
_symmetry_int_tables_number       1

loop_
  _symmetry_equiv_pos_as_xyz
  'x, y, z'

loop_
  _atom_site_label
  _atom_site_occupancy
  _atom_site_fract_x
  _atom_site_fract_y
  _atom_site_fract_z
  _atom_site_thermal_displace_type
  _atom_site_B_iso_or_equiv
  _atom_site_type_symbol
  La1      1.0000 0.12096  0.00898  0.28121  Biso   1.000  La
  Hf1      1.0000 0.13735  0.51852  0.29168  Biso   1.000  Hf
  Hf2      1.0000 0.63985  0.01460  0.30274  Biso   1.000  Hf
  Hf3      1.0000 0.63596  0.52207  0.29231  Biso   1.000  Hf
  Hf4      1.0000 0.12443  0.23522  0.80154  Biso   1.000  Hf
  Hf5      1.0000 0.13549  0.72361  0.79239  Biso   1.000  Hf
  Hf6      1.0000 0.63576  0.23124  0.77423  Biso   1.000  Hf
  Hf7      1.0000 0.62899  0.72671  0.79730  Biso   1.000  Hf
  La2      1.0000 0.36606  0.26026  0.22221  Biso   1.000  La
  Hf8      1.0000 0.36357  0.76730  0.20949  Biso   1.000  Hf
  Hf9      1.0000 0.85609  0.27727  0.20434  Biso   1.000  Hf
  Hf10     1.0000 0.85967  0.75938  0.20213  Biso   1.000  Hf
  Hf11     1.0000 0.35482  0.48072  0.70998  Biso   1.000  Hf
  Hf12     1.0000 0.35407  0.97342  0.70821  Biso   1.000  Hf
  Hf13     1.0000 0.85427  0.48191  0.70455  Biso   1.000  Hf
  Hf14     1.0000 0.84636  0.97421  0.73278  Biso   1.000  Hf
  Hf15     1.0000 0.03403  0.19769  0.16930  Biso   1.000  Hf
  Hf16     1.0000 0.03823  0.67157  0.16210  Biso   1.000  Hf
  Hf17     1.0000 0.56827  0.16874  0.14103  Biso   1.000  Hf
  Hf18     1.0000 0.54157  0.67607  0.16738  Biso   1.000  Hf
  Hf19     1.0000 0.01036  0.08453  0.70699  Biso   1.000  Hf
  Hf20     1.0000 0.02740  0.58256  0.66033  Biso   1.000  Hf
  Hf21     1.0000 0.52746  0.08290  0.65404  Biso   1.000  Hf
  Hf22     1.0000 0.53144  0.58125  0.67052  Biso   1.000  Hf
  Hf23     1.0000 0.45967  0.44244  0.33684  Biso   1.000  Hf
  Hf24     1.0000 0.45956  0.92521  0.33354  Biso   1.000  Hf
  Hf25     1.0000 0.95595  0.42929  0.33305  Biso   1.000  Hf
  Hf26     1.0000 0.92541  0.91425  0.36556  Biso   1.000  Hf
  Hf27     1.0000 0.46252  0.32887  0.80016  Biso   1.000  Hf
  Hf28     1.0000 0.46296  0.83222  0.84546  Biso   1.000  Hf
  Hf29     1.0000 0.94803  0.33372  0.83360  Biso   1.000  Hf
  Hf30     1.0000 0.96126  0.83321  0.85233  Biso   1.000  Hf
  Hf31     1.0000 0.25364  0.12092  0.52310  Biso   1.000  Hf
  Hf32     1.0000 0.27118  0.62517  0.48188  Biso   1.000  Hf
  Hf33     1.0000 0.77020  0.13094  0.48262  Biso   1.000  Hf
  Hf34     1.0000 0.77031  0.63122  0.48174  Biso   1.000  Hf
  Hf35     1.0000 0.25984  0.11221  0.96430  Biso   1.000  Hf
  Hf36     1.0000 0.26888  0.61869  0.98609  Biso   1.000  Hf
  Hf37     1.0000 0.77350  0.12246  0.98086  Biso   1.000  Hf
  Hf38     1.0000 0.76728  0.62071  0.98025  Biso   1.000  Hf
  Hf39     1.0000 0.22033  0.38535  0.00734  Biso   1.000  Hf
  Hf40     1.0000 0.22822  0.86273  0.00232  Biso   1.000  Hf
  Hf41     1.0000 0.72139  0.38342  0.01019  Biso   1.000  Hf
  Hf42     1.0000 0.72682  0.87691  0.02907  Biso   1.000  Hf
  Hf43     1.0000 0.20954  0.37790  0.53378  Biso   1.000  Hf
  Hf44     1.0000 0.23036  0.85619  0.52293  Biso   1.000  Hf
  Hf45     1.0000 0.72043  0.37407  0.51154  Biso   1.000  Hf
  Hf46     1.0000 0.70599  0.87067  0.54100  Biso   1.000  Hf
