data_image0
_cell_length_a       10.1763
_cell_length_b       5.21505
_cell_length_c       10.1822
_cell_angle_alpha    90
_cell_angle_beta     90
_cell_angle_gamma    90

_symmetry_space_group_name_H-M    "P 1"
_symmetry_int_tables_number       1

loop_
  _symmetry_equiv_pos_as_xyz
  'x, y, z'

loop_
  _atom_site_label
  _atom_site_occupancy
  _atom_site_fract_x
  _atom_site_fract_y
  _atom_site_fract_z
  _atom_site_thermal_displace_type
  _atom_site_B_iso_or_equiv
  _atom_site_type_symbol
  La1      1.0000 0.11954  0.00593  0.12054  Biso   1.000  La
  Hf1      1.0000 0.12577  0.02034  0.62392  Biso   1.000  Hf
  Hf2      1.0000 0.63293  0.02708  0.12398  Biso   1.000  Hf
  La2      1.0000 0.61238  0.99922  0.62047  Biso   1.000  La
  Hf3      1.0000 0.13277  0.45933  0.37656  Biso   1.000  Hf
  Hf4      1.0000 0.12112  0.45675  0.87256  Biso   1.000  Hf
  Hf5      1.0000 0.62828  0.46345  0.37261  Biso   1.000  Hf
  Hf6      1.0000 0.62563  0.45263  0.87649  Biso   1.000  Hf
  Hf7      1.0000 0.36625  0.52102  0.12403  Biso   1.000  Hf
  Hf8      1.0000 0.34823  0.52242  0.62783  Biso   1.000  Hf
  Hf9      1.0000 0.85537  0.52911  0.12792  Biso   1.000  Hf
  Hf10     1.0000 0.85913  0.51432  0.62395  Biso   1.000  Hf
  Hf11     1.0000 0.35589  0.95992  0.37084  Biso   1.000  Hf
  Hf12     1.0000 0.35011  0.95822  0.88034  Biso   1.000  Hf
  Hf13     1.0000 0.85730  0.96497  0.38042  Biso   1.000  Hf
  Hf14     1.0000 0.84873  0.95319  0.87078  Biso   1.000  Hf
  Hf15     1.0000 0.02456  0.39823  0.20478  Biso   1.000  Hf
  Hf16     1.0000 0.03025  0.36103  0.68596  Biso   1.000  Hf
  Hf17     1.0000 0.53739  0.36773  0.18604  Biso   1.000  Hf
  Hf18     1.0000 0.51743  0.39152  0.70468  Biso   1.000  Hf
  Hf19     1.0000 0.03102  0.12451  0.44170  Biso   1.000  Hf
  Hf20     1.0000 0.01506  0.14268  0.92084  Biso   1.000  Hf
  Hf21     1.0000 0.52223  0.14938  0.42092  Biso   1.000  Hf
  Hf22     1.0000 0.52384  0.11784  0.94163  Biso   1.000  Hf
  Hf23     1.0000 0.45990  0.86553  0.19216  Biso   1.000  Hf
  Hf24     1.0000 0.42019  0.86117  0.70237  Biso   1.000  Hf
  Hf25     1.0000 0.92732  0.86790  0.20244  Biso   1.000  Hf
  Hf26     1.0000 0.95276  0.85882  0.69213  Biso   1.000  Hf
  Hf27     1.0000 0.46823  0.64944  0.45914  Biso   1.000  Hf
  Hf28     1.0000 0.46129  0.62845  0.94891  Biso   1.000  Hf
  Hf29     1.0000 0.96844  0.63512  0.44900  Biso   1.000  Hf
  Hf30     1.0000 0.96107  0.64274  0.95910  Biso   1.000  Hf
  Hf31     1.0000 0.27548  0.23750  0.25280  Biso   1.000  Hf
  Hf32     1.0000 0.25574  0.22625  0.75001  Biso   1.000  Hf
  Hf33     1.0000 0.76288  0.23296  0.25010  Biso   1.000  Hf
  Hf34     1.0000 0.76833  0.23078  0.75275  Biso   1.000  Hf
  Hf35     1.0000 0.26297  0.25289  0.50047  Biso   1.000  Hf
  Hf36     1.0000 0.25963  0.25374  0.99293  Biso   1.000  Hf
  Hf37     1.0000 0.76680  0.26045  0.49302  Biso   1.000  Hf
  Hf38     1.0000 0.77012  0.25963  0.00056  Biso   1.000  Hf
  Hf39     1.0000 0.22331  0.75714  0.49846  Biso   1.000  Hf
  Hf40     1.0000 0.22898  0.72803  0.99057  Biso   1.000  Hf
  Hf41     1.0000 0.73615  0.73477  0.49062  Biso   1.000  Hf
  Hf42     1.0000 0.71616  0.75047  0.99839  Biso   1.000  Hf
  Hf43     1.0000 0.23916  0.70743  0.25502  Biso   1.000  Hf
  Hf44     1.0000 0.20429  0.72455  0.74550  Biso   1.000  Hf
  Hf45     1.0000 0.71142  0.73128  0.24555  Biso   1.000  Hf
  Hf46     1.0000 0.73203  0.70071  0.75493  Biso   1.000  Hf
