data_image0
_cell_length_a       5.05804
_cell_length_b       10.4662
_cell_length_c       10.2151
_cell_angle_alpha    90
_cell_angle_beta     90
_cell_angle_gamma    90

_symmetry_space_group_name_H-M    "P 1"
_symmetry_int_tables_number       1

loop_
  _symmetry_equiv_pos_as_xyz
  'x, y, z'

loop_
  _atom_site_label
  _atom_site_occupancy
  _atom_site_fract_x
  _atom_site_fract_y
  _atom_site_fract_z
  _atom_site_thermal_displace_type
  _atom_site_B_iso_or_equiv
  _atom_site_type_symbol
  La1      1.0000 0.24358  0.00309  0.11625  Biso   1.000  La
  Hf1      1.0000 0.23903  0.00704  0.62380  Biso   1.000  Hf
  Hf2      1.0000 0.25861  0.51403  0.12394  Biso   1.000  Hf
  La2      1.0000 0.22321  0.49603  0.61608  Biso   1.000  La
  Hf3      1.0000 0.26131  0.22616  0.37391  Biso   1.000  Hf
  Hf4      1.0000 0.23374  0.22309  0.87380  Biso   1.000  Hf
  Hf5      1.0000 0.25340  0.73007  0.37394  Biso   1.000  Hf
  Hf6      1.0000 0.24101  0.71917  0.87373  Biso   1.000  Hf
  Hf7      1.0000 0.71736  0.26505  0.12665  Biso   1.000  Hf
  Hf8      1.0000 0.70738  0.25172  0.62541  Biso   1.000  Hf
  Hf9      1.0000 0.72698  0.75872  0.12555  Biso   1.000  Hf
  Hf10     1.0000 0.69708  0.75804  0.62648  Biso   1.000  Hf
  Hf11     1.0000 0.71602  0.47851  0.36718  Biso   1.000  Hf
  Hf12     1.0000 0.68927  0.46981  0.88076  Biso   1.000  Hf
  Hf13     1.0000 0.70894  0.97677  0.38090  Biso   1.000  Hf
  Hf14     1.0000 0.69574  0.97148  0.86702  Biso   1.000  Hf
  Hf15     1.0000 0.04843  0.19294  0.20370  Biso   1.000  Hf
  Hf16     1.0000 0.05294  0.17800  0.68799  Biso   1.000  Hf
  Hf17     1.0000 0.07256  0.68501  0.18813  Biso   1.000  Hf
  Hf18     1.0000 0.02818  0.68593  0.70349  Biso   1.000  Hf
  Hf19     1.0000 0.04527  0.06434  0.44498  Biso   1.000  Hf
  Hf20     1.0000 0.02956  0.06156  0.91489  Biso   1.000  Hf
  Hf21     1.0000 0.04930  0.56850  0.41497  Biso   1.000  Hf
  Hf22     1.0000 0.02492  0.55737  0.94481  Biso   1.000  Hf
  Hf23     1.0000 0.91352  0.43397  0.19094  Biso   1.000  Hf
  Hf24     1.0000 0.86160  0.41776  0.70879  Biso   1.000  Hf
  Hf25     1.0000 0.88113  0.92480  0.20886  Biso   1.000  Hf
  Hf26     1.0000 0.89325  0.92695  0.69081  Biso   1.000  Hf
  Hf27     1.0000 0.95297  0.32560  0.45943  Biso   1.000  Hf
  Hf28     1.0000 0.90086  0.30645  0.95274  Biso   1.000  Hf
  Hf29     1.0000 0.92051  0.81344  0.45280  Biso   1.000  Hf
  Hf30     1.0000 0.93268  0.81863  0.95922  Biso   1.000  Hf
  Hf31     1.0000 0.54556  0.12295  0.25771  Biso   1.000  Hf
  Hf32     1.0000 0.51136  0.10367  0.74506  Biso   1.000  Hf
  Hf33     1.0000 0.53096  0.61067  0.24520  Biso   1.000  Hf
  Hf34     1.0000 0.52529  0.61593  0.75756  Biso   1.000  Hf
  Hf35     1.0000 0.51336  0.12018  0.50223  Biso   1.000  Hf
  Hf36     1.0000 0.51465  0.12274  0.99062  Biso   1.000  Hf
  Hf37     1.0000 0.53439  0.62966  0.49075  Biso   1.000  Hf
  Hf38     1.0000 0.53298  0.62718  0.00236  Biso   1.000  Hf
  Hf39     1.0000 0.48348  0.36166  0.48755  Biso   1.000  Hf
  Hf40     1.0000 0.41616  0.36926  0.99948  Biso   1.000  Hf
  Hf41     1.0000 0.43582  0.87622  0.49961  Biso   1.000  Hf
  Hf42     1.0000 0.46310  0.85466  0.98740  Biso   1.000  Hf
  Hf43     1.0000 0.44189  0.36635  0.24560  Biso   1.000  Hf
  Hf44     1.0000 0.44146  0.34310  0.75412  Biso   1.000  Hf
  Hf45     1.0000 0.46108  0.85009  0.25425  Biso   1.000  Hf
  Hf46     1.0000 0.42162  0.85933  0.74543  Biso   1.000  Hf
