data_image0
_cell_length_a       5.07169
_cell_length_b       10.3484
_cell_length_c       10.151
_cell_angle_alpha    90
_cell_angle_beta     90
_cell_angle_gamma    90

_symmetry_space_group_name_H-M    "P 1"
_symmetry_int_tables_number       1

loop_
  _symmetry_equiv_pos_as_xyz
  'x, y, z'

loop_
  _atom_site_label
  _atom_site_occupancy
  _atom_site_fract_x
  _atom_site_fract_y
  _atom_site_fract_z
  _atom_site_thermal_displace_type
  _atom_site_B_iso_or_equiv
  _atom_site_type_symbol
  La1      1.0000 0.24740  0.99897  0.12242  Biso   1.000  La
  Hf1      1.0000 0.24722  0.99893  0.63050  Biso   1.000  Hf
  Hf2      1.0000 0.24744  0.49898  0.12424  Biso   1.000  Hf
  Hf3      1.0000 0.24733  0.49890  0.62672  Biso   1.000  Hf
  Hf4      1.0000 0.24063  0.25624  0.38031  Biso   1.000  Hf
  Hf5      1.0000 0.25300  0.25114  0.87403  Biso   1.000  Hf
  Hf6      1.0000 0.25405  0.74154  0.38022  Biso   1.000  Hf
  Hf7      1.0000 0.24174  0.74690  0.87396  Biso   1.000  Hf
  Hf8      1.0000 0.75389  0.25643  0.12169  Biso   1.000  Hf
  Hf9      1.0000 0.74156  0.25104  0.62787  Biso   1.000  Hf
  Hf10     1.0000 0.74084  0.74150  0.12164  Biso   1.000  Hf
  Hf11     1.0000 0.75304  0.74678  0.62778  Biso   1.000  Hf
  La2      1.0000 0.74735  0.99892  0.37953  Biso   1.000  La
  Hf12     1.0000 0.74721  0.99896  0.87153  Biso   1.000  Hf
  Hf13     1.0000 0.74736  0.49891  0.37768  Biso   1.000  Hf
  Hf14     1.0000 0.74735  0.49902  0.87517  Biso   1.000  Hf
  Hf15     1.0000 0.99997  0.15356  0.99274  Biso   1.000  Hf
  Hf16     1.0000 0.99493  0.15355  0.50880  Biso   1.000  Hf
  Hf17     1.0000 0.01347  0.64147  0.00146  Biso   1.000  Hf
  Hf18     1.0000 0.98174  0.64153  0.50006  Biso   1.000  Hf
  Hf19     1.0000 0.99689  0.13637  0.25076  Biso   1.000  Hf
  Hf20     1.0000 0.99659  0.09781  0.75064  Biso   1.000  Hf
  Hf21     1.0000 0.99663  0.59859  0.25061  Biso   1.000  Hf
  Hf22     1.0000 0.99736  0.59888  0.75077  Biso   1.000  Hf
  Hf23     1.0000 0.99862  0.36429  0.25104  Biso   1.000  Hf
  Hf24     1.0000 0.99759  0.35041  0.75103  Biso   1.000  Hf
  Hf25     1.0000 0.99769  0.83563  0.25107  Biso   1.000  Hf
  Hf26     1.0000 0.99716  0.84786  0.75112  Biso   1.000  Hf
  Hf27     1.0000 0.98280  0.39826  0.00307  Biso   1.000  Hf
  Hf28     1.0000 0.01117  0.39824  0.49928  Biso   1.000  Hf
  Hf29     1.0000 0.96662  0.88350  0.99160  Biso   1.000  Hf
  Hf30     1.0000 0.02734  0.88340  0.51078  Biso   1.000  Hf
  Hf31     1.0000 0.49703  0.16231  0.25109  Biso   1.000  Hf
  Hf32     1.0000 0.49701  0.15006  0.75113  Biso   1.000  Hf
  Hf33     1.0000 0.49675  0.63357  0.25104  Biso   1.000  Hf
  Hf34     1.0000 0.49744  0.64749  0.75108  Biso   1.000  Hf
  Hf35     1.0000 0.52814  0.11462  0.99167  Biso   1.000  Hf
  Hf36     1.0000 0.46729  0.11440  0.51080  Biso   1.000  Hf
  Hf37     1.0000 0.51215  0.59967  0.00303  Biso   1.000  Hf
  Hf38     1.0000 0.48346  0.59958  0.49917  Biso   1.000  Hf
  Hf39     1.0000 0.48167  0.35649  0.00125  Biso   1.000  Hf
  Hf40     1.0000 0.51288  0.35629  0.49988  Biso   1.000  Hf
  Hf41     1.0000 0.49466  0.84452  0.99288  Biso   1.000  Hf
  Hf42     1.0000 0.49961  0.84434  0.50894  Biso   1.000  Hf
  Hf43     1.0000 0.49896  0.39930  0.25032  Biso   1.000  Hf
  Hf44     1.0000 0.49796  0.39900  0.75055  Biso   1.000  Hf
  Hf45     1.0000 0.49774  0.86148  0.25084  Biso   1.000  Hf
  Hf46     1.0000 0.49728  0.90010  0.75091  Biso   1.000  Hf
