data_image0
_cell_length_a       10.2624
_cell_length_b       5.16881
_cell_length_c       10.4385
_cell_angle_alpha    90
_cell_angle_beta     90
_cell_angle_gamma    90

_symmetry_space_group_name_H-M    "P 1"
_symmetry_int_tables_number       1

loop_
  _symmetry_equiv_pos_as_xyz
  'x, y, z'

loop_
  _atom_site_label
  _atom_site_occupancy
  _atom_site_fract_x
  _atom_site_fract_y
  _atom_site_fract_z
  _atom_site_thermal_displace_type
  _atom_site_B_iso_or_equiv
  _atom_site_type_symbol
  La1      1.0000 0.12216  0.01665  0.15989  Biso   1.000  La
  Hf1      1.0000 0.13371  0.03545  0.67300  Biso   1.000  Hf
  Hf2      1.0000 0.14435  0.45907  0.41764  Biso   1.000  Hf
  Hf3      1.0000 0.12531  0.46438  0.91611  Biso   1.000  Hf
  Hf4      1.0000 0.36253  0.52644  0.16709  Biso   1.000  Hf
  Hf5      1.0000 0.34945  0.53404  0.66976  Biso   1.000  Hf
  Hf6      1.0000 0.35681  0.95421  0.41776  Biso   1.000  Hf
  Hf7      1.0000 0.35119  0.95809  0.91998  Biso   1.000  Hf
  Hf8      1.0000 0.63965  0.03415  0.08016  Biso   1.000  Hf
  Hf9      1.0000 0.62662  0.02638  0.58281  Biso   1.000  Hf
  Hf10     1.0000 0.63217  0.45422  0.33217  Biso   1.000  Hf
  Hf11     1.0000 0.62326  0.45810  0.82984  Biso   1.000  Hf
  Hf12     1.0000 0.85538  0.53558  0.07690  Biso   1.000  Hf
  La2      1.0000 0.86699  0.51667  0.59006  Biso   1.000  La
  Hf13     1.0000 0.84465  0.95915  0.33232  Biso   1.000  Hf
  Hf14     1.0000 0.84910  0.96447  0.83371  Biso   1.000  Hf
  Hf15     1.0000 0.03926  0.41944  0.09263  Biso   1.000  Hf
  Hf16     1.0000 0.07326  0.38506  0.60566  Biso   1.000  Hf
  Hf17     1.0000 0.01230  0.18119  0.35971  Biso   1.000  Hf
  Hf18     1.0000 0.02998  0.13833  0.85534  Biso   1.000  Hf
  Hf19     1.0000 0.47150  0.81922  0.08174  Biso   1.000  Hf
  Hf20     1.0000 0.45954  0.81365  0.58029  Biso   1.000  Hf
  Hf21     1.0000 0.46771  0.67154  0.33003  Biso   1.000  Hf
  Hf22     1.0000 0.45506  0.67040  0.82942  Biso   1.000  Hf
  Hf23     1.0000 0.27295  0.24479  0.29823  Biso   1.000  Hf
  Hf24     1.0000 0.26504  0.24684  0.79350  Biso   1.000  Hf
  Hf25     1.0000 0.28024  0.24908  0.03714  Biso   1.000  Hf
  Hf26     1.0000 0.28024  0.24830  0.54076  Biso   1.000  Hf
  Hf27     1.0000 0.23411  0.72636  0.29450  Biso   1.000  Hf
  Hf28     1.0000 0.21451  0.74588  0.79053  Biso   1.000  Hf
  Hf29     1.0000 0.24311  0.72727  0.03158  Biso   1.000  Hf
  Hf30     1.0000 0.21985  0.76287  0.54052  Biso   1.000  Hf
  Hf31     1.0000 0.52947  0.31368  0.16964  Biso   1.000  Hf
  Hf32     1.0000 0.51747  0.31917  0.66815  Biso   1.000  Hf
  Hf33     1.0000 0.52141  0.17151  0.41986  Biso   1.000  Hf
  Hf34     1.0000 0.51954  0.17042  0.92041  Biso   1.000  Hf
  Hf35     1.0000 0.91575  0.88509  0.14436  Biso   1.000  Hf
  Hf36     1.0000 0.94968  0.91956  0.65722  Biso   1.000  Hf
  Hf37     1.0000 0.97679  0.68120  0.39023  Biso   1.000  Hf
  Hf38     1.0000 0.94462  0.63837  0.89446  Biso   1.000  Hf
  Hf39     1.0000 0.76005  0.24589  0.95928  Biso   1.000  Hf
  Hf40     1.0000 0.75500  0.22648  0.45539  Biso   1.000  Hf
  Hf41     1.0000 0.76918  0.26302  0.20941  Biso   1.000  Hf
  Hf42     1.0000 0.74588  0.22725  0.71836  Biso   1.000  Hf
  Hf43     1.0000 0.70956  0.74689  0.95633  Biso   1.000  Hf
  Hf44     1.0000 0.71611  0.74489  0.45173  Biso   1.000  Hf
  Hf45     1.0000 0.70872  0.74857  0.20917  Biso   1.000  Hf
  Hf46     1.0000 0.70879  0.74908  0.71280  Biso   1.000  Hf
