data_image0
_cell_length_a       5.06828
_cell_length_b       10.4725
_cell_length_c       10.178
_cell_angle_alpha    90
_cell_angle_beta     90
_cell_angle_gamma    90

_symmetry_space_group_name_H-M    "P 1"
_symmetry_int_tables_number       1

loop_
  _symmetry_equiv_pos_as_xyz
  'x, y, z'

loop_
  _atom_site_label
  _atom_site_occupancy
  _atom_site_fract_x
  _atom_site_fract_y
  _atom_site_fract_z
  _atom_site_thermal_displace_type
  _atom_site_B_iso_or_equiv
  _atom_site_type_symbol
  La1      1.0000 0.24728  0.00349  0.11626  Biso   1.000  La
  Hf1      1.0000 0.26238  0.00313  0.62726  Biso   1.000  Hf
  Hf2      1.0000 0.26554  0.51412  0.12367  Biso   1.000  Hf
  Hf3      1.0000 0.27570  0.51025  0.62874  Biso   1.000  Hf
  Hf4      1.0000 0.26172  0.23154  0.36879  Biso   1.000  Hf
  Hf5      1.0000 0.27693  0.22832  0.87413  Biso   1.000  Hf
  Hf6      1.0000 0.26028  0.72566  0.38186  Biso   1.000  Hf
  Hf7      1.0000 0.27928  0.72150  0.87620  Biso   1.000  Hf
  Hf8      1.0000 0.72233  0.26652  0.12763  Biso   1.000  Hf
  La2      1.0000 0.74568  0.24791  0.61746  Biso   1.000  La
  Hf9      1.0000 0.73121  0.75822  0.12975  Biso   1.000  Hf
  Hf10     1.0000 0.73364  0.75707  0.62440  Biso   1.000  Hf
  Hf11     1.0000 0.72380  0.48272  0.37212  Biso   1.000  Hf
  Hf12     1.0000 0.73270  0.47394  0.87800  Biso   1.000  Hf
  Hf13     1.0000 0.71250  0.97660  0.37804  Biso   1.000  Hf
  Hf14     1.0000 0.73853  0.97034  0.87355  Biso   1.000  Hf
  Hf15     1.0000 0.06268  0.19502  0.19526  Biso   1.000  Hf
  Hf16     1.0000 0.14283  0.18634  0.68570  Biso   1.000  Hf
  Hf17     1.0000 0.06591  0.67972  0.20247  Biso   1.000  Hf
  Hf18     1.0000 0.07414  0.68006  0.69796  Biso   1.000  Hf
  Hf19     1.0000 0.02085  0.07260  0.45486  Biso   1.000  Hf
  Hf20     1.0000 0.06020  0.06727  0.91596  Biso   1.000  Hf
  Hf21     1.0000 0.05684  0.56491  0.45201  Biso   1.000  Hf
  Hf22     1.0000 0.06592  0.56296  0.94917  Biso   1.000  Hf
  Hf23     1.0000 0.91876  0.43914  0.18776  Biso   1.000  Hf
  Hf24     1.0000 0.94459  0.43938  0.70524  Biso   1.000  Hf
  Hf25     1.0000 0.87924  0.92732  0.20356  Biso   1.000  Hf
  Hf26     1.0000 0.92419  0.92614  0.69425  Biso   1.000  Hf
  Hf27     1.0000 0.92986  0.32385  0.41916  Biso   1.000  Hf
  Hf28     1.0000 0.93629  0.31061  0.94353  Biso   1.000  Hf
  Hf29     1.0000 0.93192  0.81519  0.45103  Biso   1.000  Hf
  Hf30     1.0000 0.97253  0.81685  0.96057  Biso   1.000  Hf
  Hf31     1.0000 0.55241  0.12581  0.25439  Biso   1.000  Hf
  Hf32     1.0000 0.52978  0.09134  0.75326  Biso   1.000  Hf
  Hf33     1.0000 0.53043  0.61124  0.24806  Biso   1.000  Hf
  Hf34     1.0000 0.54872  0.61120  0.74970  Biso   1.000  Hf
  Hf35     1.0000 0.48773  0.11170  0.49035  Biso   1.000  Hf
  Hf36     1.0000 0.55358  0.12673  0.99268  Biso   1.000  Hf
  Hf37     1.0000 0.53645  0.62775  0.49979  Biso   1.000  Hf
  Hf38     1.0000 0.54414  0.62775  0.00012  Biso   1.000  Hf
  Hf39     1.0000 0.44578  0.38327  0.49196  Biso   1.000  Hf
  Hf40     1.0000 0.46727  0.38342  0.00188  Biso   1.000  Hf
  Hf41     1.0000 0.45354  0.87177  0.50230  Biso   1.000  Hf
  Hf42     1.0000 0.49910  0.85570  0.99033  Biso   1.000  Hf
  Hf43     1.0000 0.45014  0.36854  0.24718  Biso   1.000  Hf
  Hf44     1.0000 0.45430  0.37188  0.75709  Biso   1.000  Hf
  Hf45     1.0000 0.45952  0.84769  0.25777  Biso   1.000  Hf
  Hf46     1.0000 0.46291  0.85308  0.74678  Biso   1.000  Hf
