data_image0
_cell_length_a       10.066
_cell_length_b       5.15029
_cell_length_c       10.4288
_cell_angle_alpha    90
_cell_angle_beta     90
_cell_angle_gamma    90

_symmetry_space_group_name_H-M    "P 1"
_symmetry_int_tables_number       1

loop_
  _symmetry_equiv_pos_as_xyz
  'x, y, z'

loop_
  _atom_site_label
  _atom_site_occupancy
  _atom_site_fract_x
  _atom_site_fract_y
  _atom_site_fract_z
  _atom_site_thermal_displace_type
  _atom_site_B_iso_or_equiv
  _atom_site_type_symbol
  La1      1.0000 0.11369  0.00265  0.15378  Biso   1.000  La
  Hf1      1.0000 0.13035  0.03769  0.66917  Biso   1.000  Hf
  Hf2      1.0000 0.12971  0.44261  0.41645  Biso   1.000  Hf
  Hf3      1.0000 0.13000  0.46053  0.91858  Biso   1.000  Hf
  Hf4      1.0000 0.35888  0.52392  0.16998  Biso   1.000  Hf
  Hf5      1.0000 0.34801  0.53592  0.66740  Biso   1.000  Hf
  Hf6      1.0000 0.34922  0.94915  0.41611  Biso   1.000  Hf
  Hf7      1.0000 0.35229  0.95152  0.91864  Biso   1.000  Hf
  Hf8      1.0000 0.63902  0.03498  0.07958  Biso   1.000  Hf
  Hf9      1.0000 0.62567  0.03525  0.58089  Biso   1.000  Hf
  Hf10     1.0000 0.63094  0.45182  0.33048  Biso   1.000  Hf
  Hf11     1.0000 0.62516  0.45382  0.82668  Biso   1.000  Hf
  Hf12     1.0000 0.85282  0.53293  0.07820  Biso   1.000  Hf
  Hf13     1.0000 0.85298  0.53584  0.58020  Biso   1.000  Hf
  Hf14     1.0000 0.84416  0.95927  0.34187  Biso   1.000  Hf
  Hf15     1.0000 0.84825  0.95530  0.82893  Biso   1.000  Hf
  Hf16     1.0000 0.03853  0.41812  0.10135  Biso   1.000  Hf
  Hf17     1.0000 0.02561  0.33611  0.58929  Biso   1.000  Hf
  Hf18     1.0000 0.01901  0.14764  0.34691  Biso   1.000  Hf
  Hf19     1.0000 0.02280  0.16479  0.84084  Biso   1.000  Hf
  Hf20     1.0000 0.47079  0.82795  0.08486  Biso   1.000  Hf
  Hf21     1.0000 0.45294  0.82843  0.58345  Biso   1.000  Hf
  Hf22     1.0000 0.46412  0.66374  0.33260  Biso   1.000  Hf
  Hf23     1.0000 0.45485  0.65871  0.83015  Biso   1.000  Hf
  Hf24     1.0000 0.27280  0.23664  0.29453  Biso   1.000  Hf
  Hf25     1.0000 0.26553  0.24239  0.78977  Biso   1.000  Hf
  Hf26     1.0000 0.27710  0.24868  0.03448  Biso   1.000  Hf
  Hf27     1.0000 0.26600  0.24404  0.54156  Biso   1.000  Hf
  Hf28     1.0000 0.22195  0.72013  0.29498  Biso   1.000  Hf
  Hf29     1.0000 0.21089  0.74341  0.79076  Biso   1.000  Hf
  Hf30     1.0000 0.24555  0.72905  0.03290  Biso   1.000  Hf
  Hf31     1.0000 0.21058  0.74702  0.54187  Biso   1.000  Hf
  Hf32     1.0000 0.53471  0.32976  0.16352  Biso   1.000  Hf
  Hf33     1.0000 0.52204  0.32903  0.66337  Biso   1.000  Hf
  Hf34     1.0000 0.52730  0.15646  0.41332  Biso   1.000  Hf
  Hf35     1.0000 0.52796  0.15533  0.91424  Biso   1.000  Hf
  Hf36     1.0000 0.95408  0.83206  0.66683  Biso   1.000  Hf
  Hf37     1.0000 0.95325  0.65222  0.40843  Biso   1.000  Hf
  Hf38     1.0000 0.95889  0.69055  0.92903  Biso   1.000  Hf
  Hf39     1.0000 0.76734  0.24272  0.95712  Biso   1.000  Hf
  Hf40     1.0000 0.76467  0.24413  0.46086  Biso   1.000  Hf
  Hf41     1.0000 0.77369  0.24230  0.20866  Biso   1.000  Hf
  Hf42     1.0000 0.76564  0.24997  0.70734  Biso   1.000  Hf
  Hf43     1.0000 0.71127  0.73977  0.95354  Biso   1.000  Hf
  Hf44     1.0000 0.71159  0.74088  0.45997  Biso   1.000  Hf
  Hf45     1.0000 0.72951  0.74243  0.20667  Biso   1.000  Hf
  Hf46     1.0000 0.71301  0.74741  0.70603  Biso   1.000  Hf
