data_image0
_cell_length_a       10.13
_cell_length_b       5.16613
_cell_length_c       10.4231
_cell_angle_alpha    90
_cell_angle_beta     80
_cell_angle_gamma    90

_symmetry_space_group_name_H-M    "P 1"
_symmetry_int_tables_number       1

loop_
  _symmetry_equiv_pos_as_xyz
  'x, y, z'

loop_
  _atom_site_label
  _atom_site_occupancy
  _atom_site_fract_x
  _atom_site_fract_y
  _atom_site_fract_z
  _atom_site_thermal_displace_type
  _atom_site_B_iso_or_equiv
  _atom_site_type_symbol
  La1      1.0000 0.11197  0.00976  0.13454  Biso   1.000  La
  Hf1      1.0000 0.12542  0.03971  0.64620  Biso   1.000  Hf
  Hf2      1.0000 0.63314  0.03435  0.14683  Biso   1.000  Hf
  Hf3      1.0000 0.62193  0.03957  0.65056  Biso   1.000  Hf
  Hf4      1.0000 0.12600  0.44412  0.39350  Biso   1.000  Hf
  Hf5      1.0000 0.12103  0.46297  0.89575  Biso   1.000  Hf
  Hf6      1.0000 0.62341  0.45165  0.39872  Biso   1.000  Hf
  Hf7      1.0000 0.61910  0.45479  0.89788  Biso   1.000  Hf
  Hf8      1.0000 0.35824  0.52449  0.10314  Biso   1.000  Hf
  Hf9      1.0000 0.34389  0.53817  0.60301  Biso   1.000  Hf
  Hf10     1.0000 0.84957  0.53127  0.10519  Biso   1.000  Hf
  Hf11     1.0000 0.84779  0.53979  0.60711  Biso   1.000  Hf
  Hf12     1.0000 0.34610  0.95106  0.35138  Biso   1.000  Hf
  Hf13     1.0000 0.34309  0.95009  0.85464  Biso   1.000  Hf
  Hf14     1.0000 0.83816  0.95875  0.36901  Biso   1.000  Hf
  Hf15     1.0000 0.84020  0.95577  0.85754  Biso   1.000  Hf
  Hf16     1.0000 0.03896  0.42748  0.09649  Biso   1.000  Hf
  Hf17     1.0000 0.02347  0.34557  0.58725  Biso   1.000  Hf
  Hf18     1.0000 0.53799  0.33521  0.08031  Biso   1.000  Hf
  Hf19     1.0000 0.51947  0.33524  0.58287  Biso   1.000  Hf
  Hf20     1.0000 0.01619  0.14634  0.34508  Biso   1.000  Hf
  Hf21     1.0000 0.01939  0.15307  0.84219  Biso   1.000  Hf
  Hf22     1.0000 0.52985  0.14719  0.33244  Biso   1.000  Hf
  Hf23     1.0000 0.52072  0.15268  0.83349  Biso   1.000  Hf
  Hf24     1.0000 0.45902  0.82905  0.16914  Biso   1.000  Hf
  Hf25     1.0000 0.44547  0.83543  0.66952  Biso   1.000  Hf
  Hf26     1.0000 0.94519  0.84393  0.67134  Biso   1.000  Hf
  Hf27     1.0000 0.45128  0.65244  0.41888  Biso   1.000  Hf
  Hf28     1.0000 0.45101  0.65645  0.92004  Biso   1.000  Hf
  Hf29     1.0000 0.94759  0.65148  0.41552  Biso   1.000  Hf
  Hf30     1.0000 0.94286  0.66839  0.92824  Biso   1.000  Hf
  Hf31     1.0000 0.27104  0.24546  0.24221  Biso   1.000  Hf
  Hf32     1.0000 0.25911  0.25620  0.73935  Biso   1.000  Hf
  Hf33     1.0000 0.77097  0.24731  0.24329  Biso   1.000  Hf
  Hf34     1.0000 0.76123  0.25777  0.74420  Biso   1.000  Hf
  Hf35     1.0000 0.26199  0.23603  0.49052  Biso   1.000  Hf
  Hf36     1.0000 0.25661  0.23659  0.98407  Biso   1.000  Hf
  Hf37     1.0000 0.75905  0.24107  0.49774  Biso   1.000  Hf
  Hf38     1.0000 0.75738  0.23656  0.99596  Biso   1.000  Hf
  Hf39     1.0000 0.21873  0.73174  0.99744  Biso   1.000  Hf
  Hf40     1.0000 0.20810  0.75640  0.50819  Biso   1.000  Hf
  Hf41     1.0000 0.72186  0.76170  0.00906  Biso   1.000  Hf
  Hf42     1.0000 0.70531  0.75350  0.51536  Biso   1.000  Hf
  Hf43     1.0000 0.22073  0.71579  0.25903  Biso   1.000  Hf
  Hf44     1.0000 0.20311  0.73944  0.75729  Biso   1.000  Hf
  Hf45     1.0000 0.72187  0.73172  0.26054  Biso   1.000  Hf
  Hf46     1.0000 0.70693  0.73784  0.76186  Biso   1.000  Hf
