data_image0
_cell_length_a       5.02586
_cell_length_b       10.3932
_cell_length_c       10.0875
_cell_angle_alpha    90
_cell_angle_beta     90
_cell_angle_gamma    90

_symmetry_space_group_name_H-M    "P 1"
_symmetry_int_tables_number       1

loop_
  _symmetry_equiv_pos_as_xyz
  'x, y, z'

loop_
  _atom_site_label
  _atom_site_occupancy
  _atom_site_fract_x
  _atom_site_fract_y
  _atom_site_fract_z
  _atom_site_thermal_displace_type
  _atom_site_B_iso_or_equiv
  _atom_site_type_symbol
  La1      1.0000 0.24339  0.00307  0.11768  Biso   1.000  La
  Hf1      1.0000 0.24485  0.01220  0.62259  Biso   1.000  Hf
  Hf2      1.0000 0.26831  0.51421  0.12592  Biso   1.000  Hf
  Hf3      1.0000 0.25889  0.51171  0.62399  Biso   1.000  Hf
  Hf4      1.0000 0.26042  0.23161  0.37219  Biso   1.000  Hf
  Hf5      1.0000 0.26427  0.23619  0.86574  Biso   1.000  Hf
  Hf6      1.0000 0.26248  0.72893  0.37937  Biso   1.000  Hf
  Hf7      1.0000 0.26414  0.72384  0.87548  Biso   1.000  Hf
  Hf8      1.0000 0.72589  0.26500  0.12664  Biso   1.000  Hf
  Hf9      1.0000 0.72446  0.26107  0.61978  Biso   1.000  Hf
  Hf10     1.0000 0.73522  0.76041  0.13083  Biso   1.000  Hf
  Hf11     1.0000 0.72964  0.75979  0.62282  Biso   1.000  Hf
  Hf12     1.0000 0.72723  0.48007  0.37412  Biso   1.000  Hf
  Hf13     1.0000 0.72518  0.47469  0.87638  Biso   1.000  Hf
  Hf14     1.0000 0.72361  0.98041  0.37819  Biso   1.000  Hf
  Hf15     1.0000 0.70810  0.97350  0.86510  Biso   1.000  Hf
  Hf16     1.0000 0.05768  0.19259  0.19912  Biso   1.000  Hf
  Hf17     1.0000 0.05258  0.17743  0.69753  Biso   1.000  Hf
  Hf18     1.0000 0.07451  0.68038  0.19735  Biso   1.000  Hf
  Hf19     1.0000 0.06469  0.67790  0.69665  Biso   1.000  Hf
  Hf20     1.0000 0.05208  0.06435  0.44485  Biso   1.000  Hf
  Hf21     1.0000 0.06155  0.56216  0.44794  Biso   1.000  Hf
  Hf22     1.0000 0.05187  0.56408  0.94641  Biso   1.000  Hf
  Hf23     1.0000 0.92285  0.43521  0.19316  Biso   1.000  Hf
  Hf24     1.0000 0.93014  0.42564  0.69915  Biso   1.000  Hf
  Hf25     1.0000 0.88844  0.92698  0.20473  Biso   1.000  Hf
  Hf26     1.0000 0.92209  0.92743  0.69366  Biso   1.000  Hf
  Hf27     1.0000 0.92211  0.31468  0.44672  Biso   1.000  Hf
  Hf28     1.0000 0.92343  0.30369  0.94531  Biso   1.000  Hf
  Hf29     1.0000 0.92797  0.81276  0.44984  Biso   1.000  Hf
  Hf30     1.0000 0.96843  0.83457  0.95492  Biso   1.000  Hf
  Hf31     1.0000 0.54696  0.12493  0.25490  Biso   1.000  Hf
  Hf32     1.0000 0.52310  0.11256  0.74154  Biso   1.000  Hf
  Hf33     1.0000 0.53738  0.61219  0.24976  Biso   1.000  Hf
  Hf34     1.0000 0.53562  0.60916  0.74941  Biso   1.000  Hf
  Hf35     1.0000 0.51736  0.12963  0.50012  Biso   1.000  Hf
  Hf36     1.0000 0.53004  0.12447  0.98521  Biso   1.000  Hf
  Hf37     1.0000 0.53358  0.62791  0.49964  Biso   1.000  Hf
  Hf38     1.0000 0.52696  0.61870  0.99960  Biso   1.000  Hf
  Hf39     1.0000 0.45351  0.38029  0.49752  Biso   1.000  Hf
  Hf40     1.0000 0.44605  0.37554  0.99585  Biso   1.000  Hf
  Hf41     1.0000 0.45470  0.87820  0.50145  Biso   1.000  Hf
  Hf42     1.0000 0.48877  0.85841  0.98786  Biso   1.000  Hf
  Hf43     1.0000 0.45196  0.36802  0.24767  Biso   1.000  Hf
  Hf44     1.0000 0.45846  0.36181  0.74513  Biso   1.000  Hf
  Hf45     1.0000 0.46119  0.85156  0.25724  Biso   1.000  Hf
  Hf46     1.0000 0.45444  0.86050  0.74608  Biso   1.000  Hf
