data_image0
_cell_length_a       10.2225
_cell_length_b       10.3442
_cell_length_c       5.24965
_cell_angle_alpha    90
_cell_angle_beta     80
_cell_angle_gamma    90

_symmetry_space_group_name_H-M    "P 1"
_symmetry_int_tables_number       1

loop_
  _symmetry_equiv_pos_as_xyz
  'x, y, z'

loop_
  _atom_site_label
  _atom_site_occupancy
  _atom_site_fract_x
  _atom_site_fract_y
  _atom_site_fract_z
  _atom_site_thermal_displace_type
  _atom_site_B_iso_or_equiv
  _atom_site_type_symbol
  La1      1.0000 0.12991  0.01249  0.28465  Biso   1.000  La
  Hf1      1.0000 0.13948  0.52297  0.29096  Biso   1.000  Hf
  Hf2      1.0000 0.63553  0.02158  0.29669  Biso   1.000  Hf
  Hf3      1.0000 0.64148  0.51723  0.28895  Biso   1.000  Hf
  Hf4      1.0000 0.14648  0.23939  0.79921  Biso   1.000  Hf
  Hf5      1.0000 0.14258  0.72516  0.79347  Biso   1.000  Hf
  Hf6      1.0000 0.63684  0.22786  0.79232  Biso   1.000  Hf
  Hf7      1.0000 0.63684  0.72073  0.79325  Biso   1.000  Hf
  Hf8      1.0000 0.36299  0.26885  0.21147  Biso   1.000  Hf
  Hf9      1.0000 0.36935  0.76855  0.21037  Biso   1.000  Hf
  Hf10     1.0000 0.86068  0.27148  0.20217  Biso   1.000  Hf
  Hf11     1.0000 0.86135  0.76611  0.21050  Biso   1.000  Hf
  Hf12     1.0000 0.36410  0.47689  0.70505  Biso   1.000  Hf
  Hf13     1.0000 0.36779  0.97584  0.71231  Biso   1.000  Hf
  Hf14     1.0000 0.86339  0.47530  0.70065  Biso   1.000  Hf
  Hf15     1.0000 0.84366  0.96642  0.72504  Biso   1.000  Hf
  Hf16     1.0000 0.03452  0.18481  0.14143  Biso   1.000  Hf
  Hf17     1.0000 0.03892  0.67069  0.15712  Biso   1.000  Hf
  Hf18     1.0000 0.53726  0.16928  0.16029  Biso   1.000  Hf
  Hf19     1.0000 0.53930  0.66288  0.15675  Biso   1.000  Hf
  Hf20     1.0000 0.03417  0.58201  0.65628  Biso   1.000  Hf
  Hf21     1.0000 0.53650  0.08010  0.66063  Biso   1.000  Hf
  Hf22     1.0000 0.53534  0.57938  0.65342  Biso   1.000  Hf
  Hf23     1.0000 0.46865  0.41475  0.34282  Biso   1.000  Hf
  Hf24     1.0000 0.46866  0.92000  0.34176  Biso   1.000  Hf
  Hf25     1.0000 0.96319  0.42331  0.32632  Biso   1.000  Hf
  Hf26     1.0000 0.94510  0.90607  0.38222  Biso   1.000  Hf
  Hf27     1.0000 0.46567  0.33179  0.84507  Biso   1.000  Hf
  Hf28     1.0000 0.47336  0.83129  0.84937  Biso   1.000  Hf
  Hf29     1.0000 0.96246  0.32299  0.81516  Biso   1.000  Hf
  Hf30     1.0000 0.97151  0.84339  0.86196  Biso   1.000  Hf
  Hf31     1.0000 0.27392  0.13652  0.50134  Biso   1.000  Hf
  Hf32     1.0000 0.27772  0.62443  0.47868  Biso   1.000  Hf
  Hf33     1.0000 0.77699  0.12646  0.48281  Biso   1.000  Hf
  Hf34     1.0000 0.77596  0.62548  0.47847  Biso   1.000  Hf
  Hf35     1.0000 0.28522  0.12525  0.97254  Biso   1.000  Hf
  Hf36     1.0000 0.27545  0.61440  0.98122  Biso   1.000  Hf
  Hf37     1.0000 0.77098  0.11591  0.98471  Biso   1.000  Hf
  Hf38     1.0000 0.77635  0.61524  0.97725  Biso   1.000  Hf
  Hf39     1.0000 0.22812  0.38033  0.01761  Biso   1.000  Hf
  Hf40     1.0000 0.24328  0.86594  0.00312  Biso   1.000  Hf
  Hf41     1.0000 0.72796  0.37874  0.01336  Biso   1.000  Hf
  Hf42     1.0000 0.72512  0.87415  0.02818  Biso   1.000  Hf
  Hf43     1.0000 0.22474  0.37561  0.51606  Biso   1.000  Hf
  Hf44     1.0000 0.23897  0.85967  0.52975  Biso   1.000  Hf
  Hf45     1.0000 0.72440  0.36870  0.51699  Biso   1.000  Hf
  Hf46     1.0000 0.71280  0.86593  0.53018  Biso   1.000  Hf
