data_image0
_cell_length_a       10.11
_cell_length_b       5.14715
_cell_length_c       10.4307
_cell_angle_alpha    90
_cell_angle_beta     90
_cell_angle_gamma    90

_symmetry_space_group_name_H-M    "P 1"
_symmetry_int_tables_number       1

loop_
  _symmetry_equiv_pos_as_xyz
  'x, y, z'

loop_
  _atom_site_label
  _atom_site_occupancy
  _atom_site_fract_x
  _atom_site_fract_y
  _atom_site_fract_z
  _atom_site_thermal_displace_type
  _atom_site_B_iso_or_equiv
  _atom_site_type_symbol
  La1      1.0000 0.11950  0.99193  0.15270  Biso   1.000  La
  Hf1      1.0000 0.11885  0.03143  0.66910  Biso   1.000  Hf
  Hf2      1.0000 0.11941  0.43808  0.41932  Biso   1.000  Hf
  Hf3      1.0000 0.12153  0.45324  0.91844  Biso   1.000  Hf
  Hf4      1.0000 0.35091  0.48910  0.17969  Biso   1.000  Hf
  Hf5      1.0000 0.34094  0.52853  0.66913  Biso   1.000  Hf
  Hf6      1.0000 0.34499  0.93941  0.42061  Biso   1.000  Hf
  Hf7      1.0000 0.34475  0.95363  0.91213  Biso   1.000  Hf
  Hf8      1.0000 0.65658  0.04638  0.07951  Biso   1.000  Hf
  Hf9      1.0000 0.61846  0.03189  0.57896  Biso   1.000  Hf
  Hf10     1.0000 0.62470  0.45482  0.33020  Biso   1.000  Hf
  Hf11     1.0000 0.61799  0.44529  0.82760  Biso   1.000  Hf
  Hf12     1.0000 0.86303  0.54362  0.07968  Biso   1.000  Hf
  Hf13     1.0000 0.84393  0.53322  0.57925  Biso   1.000  Hf
  Hf14     1.0000 0.84105  0.95838  0.33423  Biso   1.000  Hf
  Hf15     1.0000 0.84208  0.94662  0.82838  Biso   1.000  Hf
  Hf16     1.0000 0.05095  0.43275  0.10085  Biso   1.000  Hf
  Hf17     1.0000 0.01719  0.33740  0.59193  Biso   1.000  Hf
  Hf18     1.0000 0.01384  0.14360  0.34732  Biso   1.000  Hf
  Hf19     1.0000 0.01735  0.14619  0.84494  Biso   1.000  Hf
  Hf20     1.0000 0.45111  0.80903  0.58069  Biso   1.000  Hf
  Hf21     1.0000 0.45747  0.67156  0.32343  Biso   1.000  Hf
  Hf22     1.0000 0.44835  0.65603  0.83201  Biso   1.000  Hf
  Hf23     1.0000 0.26602  0.22456  0.29797  Biso   1.000  Hf
  Hf24     1.0000 0.25579  0.23793  0.78990  Biso   1.000  Hf
  Hf25     1.0000 0.27964  0.23430  0.03414  Biso   1.000  Hf
  Hf26     1.0000 0.25638  0.23804  0.54363  Biso   1.000  Hf
  Hf27     1.0000 0.21643  0.70742  0.30026  Biso   1.000  Hf
  Hf28     1.0000 0.20293  0.73732  0.79168  Biso   1.000  Hf
  Hf29     1.0000 0.27487  0.72107  0.03577  Biso   1.000  Hf
  Hf30     1.0000 0.20526  0.74268  0.54523  Biso   1.000  Hf
  Hf31     1.0000 0.52498  0.29913  0.16767  Biso   1.000  Hf
  Hf32     1.0000 0.51090  0.31139  0.66977  Biso   1.000  Hf
  Hf33     1.0000 0.51441  0.16577  0.41982  Biso   1.000  Hf
  Hf34     1.0000 0.51691  0.14958  0.92008  Biso   1.000  Hf
  Hf35     1.0000 0.90458  0.89768  0.14505  Biso   1.000  Hf
  Hf36     1.0000 0.94453  0.83646  0.66152  Biso   1.000  Hf
  Hf37     1.0000 0.94586  0.64912  0.40706  Biso   1.000  Hf
  Hf38     1.0000 0.94629  0.65513  0.91212  Biso   1.000  Hf
  Hf39     1.0000 0.75791  0.23739  0.95472  Biso   1.000  Hf
  Hf40     1.0000 0.75638  0.24016  0.45824  Biso   1.000  Hf
  Hf41     1.0000 0.76895  0.27992  0.21040  Biso   1.000  Hf
  Hf42     1.0000 0.75637  0.24224  0.70557  Biso   1.000  Hf
  Hf43     1.0000 0.70021  0.73377  0.95349  Biso   1.000  Hf
  Hf44     1.0000 0.70776  0.74101  0.45884  Biso   1.000  Hf
  Hf45     1.0000 0.69331  0.75718  0.21191  Biso   1.000  Hf
  Hf46     1.0000 0.70597  0.73823  0.70607  Biso   1.000  Hf
