data_image0
_cell_length_a       5.08138
_cell_length_b       10.4124
_cell_length_c       10.4095
_cell_angle_alpha    90
_cell_angle_beta     80
_cell_angle_gamma    90

_symmetry_space_group_name_H-M    "P 1"
_symmetry_int_tables_number       1

loop_
  _symmetry_equiv_pos_as_xyz
  'x, y, z'

loop_
  _atom_site_label
  _atom_site_occupancy
  _atom_site_fract_x
  _atom_site_fract_y
  _atom_site_fract_z
  _atom_site_thermal_displace_type
  _atom_site_B_iso_or_equiv
  _atom_site_type_symbol
  La1      1.0000 0.26856  0.01328  0.13819  Biso   1.000  La
  Hf1      1.0000 0.26445  0.02633  0.64820  Biso   1.000  Hf
  Hf2      1.0000 0.26982  0.52174  0.14708  Biso   1.000  Hf
  Hf3      1.0000 0.24632  0.52436  0.64697  Biso   1.000  Hf
  Hf4      1.0000 0.25786  0.23112  0.39912  Biso   1.000  Hf
  Hf5      1.0000 0.22683  0.24225  0.89335  Biso   1.000  Hf
  Hf6      1.0000 0.24819  0.72825  0.39799  Biso   1.000  Hf
  Hf7      1.0000 0.24894  0.73112  0.89513  Biso   1.000  Hf
  Hf8      1.0000 0.72047  0.28174  0.10938  Biso   1.000  Hf
  Hf9      1.0000 0.70150  0.27464  0.60726  Biso   1.000  Hf
  Hf10     1.0000 0.71353  0.76597  0.10497  Biso   1.000  Hf
  Hf11     1.0000 0.69153  0.77335  0.60104  Biso   1.000  Hf
  Hf12     1.0000 0.70051  0.48180  0.35825  Biso   1.000  Hf
  Hf13     1.0000 0.68518  0.48570  0.85404  Biso   1.000  Hf
  Hf14     1.0000 0.68844  0.98221  0.35779  Biso   1.000  Hf
  Hf15     1.0000 0.70178  0.97274  0.84581  Biso   1.000  Hf
  Hf16     1.0000 0.07644  0.19552  0.07779  Biso   1.000  Hf
  Hf17     1.0000 0.05559  0.17947  0.59227  Biso   1.000  Hf
  Hf18     1.0000 0.07679  0.67837  0.08589  Biso   1.000  Hf
  Hf19     1.0000 0.04328  0.67589  0.58696  Biso   1.000  Hf
  Hf20     1.0000 0.04919  0.08040  0.35016  Biso   1.000  Hf
  Hf21     1.0000 0.05010  0.07999  0.83858  Biso   1.000  Hf
  Hf22     1.0000 0.05426  0.57864  0.33383  Biso   1.000  Hf
  Hf23     1.0000 0.04345  0.57772  0.83679  Biso   1.000  Hf
  Hf24     1.0000 0.90818  0.43114  0.16770  Biso   1.000  Hf
  Hf25     1.0000 0.89478  0.42837  0.66753  Biso   1.000  Hf
  Hf26     1.0000 0.84601  0.93207  0.16594  Biso   1.000  Hf
  Hf27     1.0000 0.89961  0.92447  0.66501  Biso   1.000  Hf
  Hf28     1.0000 0.90579  0.33131  0.42036  Biso   1.000  Hf
  Hf29     1.0000 0.87324  0.33058  0.91318  Biso   1.000  Hf
  Hf30     1.0000 0.89633  0.82867  0.41633  Biso   1.000  Hf
  Hf31     1.0000 0.91019  0.83147  0.91746  Biso   1.000  Hf
  Hf32     1.0000 0.55605  0.14349  0.24709  Biso   1.000  Hf
  Hf33     1.0000 0.53007  0.13389  0.75190  Biso   1.000  Hf
  Hf34     1.0000 0.53812  0.62611  0.24159  Biso   1.000  Hf
  Hf35     1.0000 0.52163  0.63305  0.74119  Biso   1.000  Hf
  Hf36     1.0000 0.53064  0.12487  0.49796  Biso   1.000  Hf
  Hf37     1.0000 0.52483  0.62359  0.49280  Biso   1.000  Hf
  Hf38     1.0000 0.51667  0.62179  0.99357  Biso   1.000  Hf
  Hf39     1.0000 0.44152  0.37779  0.00791  Biso   1.000  Hf
  Hf40     1.0000 0.42575  0.38340  0.51166  Biso   1.000  Hf
  Hf41     1.0000 0.44255  0.87325  0.99339  Biso   1.000  Hf
  Hf42     1.0000 0.41707  0.88478  0.51109  Biso   1.000  Hf
  Hf43     1.0000 0.42805  0.37673  0.26186  Biso   1.000  Hf
  Hf44     1.0000 0.41539  0.37681  0.75874  Biso   1.000  Hf
  Hf45     1.0000 0.42489  0.85747  0.26692  Biso   1.000  Hf
  Hf46     1.0000 0.41766  0.87225  0.75401  Biso   1.000  Hf
