data_image0
_cell_length_a       9.98645
_cell_length_b       10.4063
_cell_length_c       5.03419
_cell_angle_alpha    90
_cell_angle_beta     90
_cell_angle_gamma    90

_symmetry_space_group_name_H-M    "P 1"
_symmetry_int_tables_number       1

loop_
  _symmetry_equiv_pos_as_xyz
  'x, y, z'

loop_
  _atom_site_label
  _atom_site_occupancy
  _atom_site_fract_x
  _atom_site_fract_y
  _atom_site_fract_z
  _atom_site_thermal_displace_type
  _atom_site_B_iso_or_equiv
  _atom_site_type_symbol
  La1      1.0000 0.11273  0.00449  0.25527  Biso   1.000  La
  Hf1      1.0000 0.12759  0.51831  0.22876  Biso   1.000  Hf
  Hf2      1.0000 0.62881  0.02043  0.25139  Biso   1.000  Hf
  Hf3      1.0000 0.62644  0.51639  0.25469  Biso   1.000  Hf
  Hf4      1.0000 0.12619  0.23618  0.74127  Biso   1.000  Hf
  Hf5      1.0000 0.12891  0.73263  0.72265  Biso   1.000  Hf
  Hf6      1.0000 0.62138  0.23819  0.74860  Biso   1.000  Hf
  Hf7      1.0000 0.62350  0.73403  0.76531  Biso   1.000  Hf
  Hf8      1.0000 0.35771  0.26537  0.25036  Biso   1.000  Hf
  Hf9      1.0000 0.36446  0.76541  0.23752  Biso   1.000  Hf
  Hf10     1.0000 0.85984  0.27516  0.25185  Biso   1.000  Hf
  Hf11     1.0000 0.84953  0.76235  0.29611  Biso   1.000  Hf
  Hf12     1.0000 0.35465  0.48333  0.74630  Biso   1.000  Hf
  Hf13     1.0000 0.35364  0.98547  0.74660  Biso   1.000  Hf
  Hf14     1.0000 0.85560  0.48344  0.75710  Biso   1.000  Hf
  Hf15     1.0000 0.83971  0.99027  0.76391  Biso   1.000  Hf
  Hf16     1.0000 0.02951  0.20328  0.37587  Biso   1.000  Hf
  Hf17     1.0000 0.04090  0.70163  0.30564  Biso   1.000  Hf
  Hf18     1.0000 0.53385  0.18779  0.38021  Biso   1.000  Hf
  Hf19     1.0000 0.53081  0.68481  0.39387  Biso   1.000  Hf
  Hf20     1.0000 0.02373  0.06665  0.81204  Biso   1.000  Hf
  Hf21     1.0000 0.02658  0.57142  0.85325  Biso   1.000  Hf
  Hf22     1.0000 0.53156  0.06612  0.87776  Biso   1.000  Hf
  Hf23     1.0000 0.52488  0.56864  0.89251  Biso   1.000  Hf
  Hf24     1.0000 0.45836  0.43468  0.38917  Biso   1.000  Hf
  Hf25     1.0000 0.45537  0.93931  0.37745  Biso   1.000  Hf
  Hf26     1.0000 0.95194  0.45022  0.37581  Biso   1.000  Hf
  Hf27     1.0000 0.95010  0.82954  0.67634  Biso   1.000  Hf
  Hf28     1.0000 0.45205  0.31754  0.88619  Biso   1.000  Hf
  Hf29     1.0000 0.45863  0.82117  0.89337  Biso   1.000  Hf
  Hf30     1.0000 0.95319  0.32079  0.88741  Biso   1.000  Hf
  Hf31     1.0000 0.27315  0.12753  0.50831  Biso   1.000  Hf
  Hf32     1.0000 0.25831  0.61577  0.48690  Biso   1.000  Hf
  Hf33     1.0000 0.76671  0.12253  0.50085  Biso   1.000  Hf
  Hf34     1.0000 0.75914  0.62083  0.51766  Biso   1.000  Hf
  Hf35     1.0000 0.25893  0.13292  0.99459  Biso   1.000  Hf
  Hf36     1.0000 0.26324  0.62843  0.98711  Biso   1.000  Hf
  Hf37     1.0000 0.76841  0.13809  0.00515  Biso   1.000  Hf
  Hf38     1.0000 0.77471  0.63320  0.01644  Biso   1.000  Hf
  Hf39     1.0000 0.21672  0.38395  0.99188  Biso   1.000  Hf
  Hf40     1.0000 0.21716  0.87195  0.97350  Biso   1.000  Hf
  Hf41     1.0000 0.71355  0.38658  0.99888  Biso   1.000  Hf
  Hf42     1.0000 0.73490  0.87489  0.01884  Biso   1.000  Hf
  Hf43     1.0000 0.22082  0.37181  0.49054  Biso   1.000  Hf
  Hf44     1.0000 0.23930  0.85891  0.49715  Biso   1.000  Hf
  Hf45     1.0000 0.72267  0.37207  0.50219  Biso   1.000  Hf
  Hf46     1.0000 0.71078  0.87693  0.51241  Biso   1.000  Hf
