data_image0
_cell_length_a       10.065
_cell_length_b       10.3875
_cell_length_c       5.02784
_cell_angle_alpha    90
_cell_angle_beta     90
_cell_angle_gamma    90

_symmetry_space_group_name_H-M    "P 1"
_symmetry_int_tables_number       1

loop_
  _symmetry_equiv_pos_as_xyz
  'x, y, z'

loop_
  _atom_site_label
  _atom_site_occupancy
  _atom_site_fract_x
  _atom_site_fract_y
  _atom_site_fract_z
  _atom_site_thermal_displace_type
  _atom_site_B_iso_or_equiv
  _atom_site_type_symbol
  La1      1.0000 0.12639  0.00047  0.24019  Biso   1.000  La
  Hf1      1.0000 0.13411  0.51670  0.25422  Biso   1.000  Hf
  Hf2      1.0000 0.63216  0.01721  0.26109  Biso   1.000  Hf
  Hf3      1.0000 0.63362  0.51287  0.25566  Biso   1.000  Hf
  Hf4      1.0000 0.13290  0.23405  0.74678  Biso   1.000  Hf
  Hf5      1.0000 0.12822  0.72663  0.75301  Biso   1.000  Hf
  Hf6      1.0000 0.63382  0.23536  0.75527  Biso   1.000  Hf
  Hf7      1.0000 0.63491  0.72975  0.75970  Biso   1.000  Hf
  Hf8      1.0000 0.36293  0.26507  0.25354  Biso   1.000  Hf
  Hf9      1.0000 0.37991  0.75580  0.22472  Biso   1.000  Hf
  Hf10     1.0000 0.86730  0.26890  0.25359  Biso   1.000  Hf
  Hf11     1.0000 0.85869  0.76483  0.26113  Biso   1.000  Hf
  Hf12     1.0000 0.36433  0.48140  0.75267  Biso   1.000  Hf
  Hf13     1.0000 0.37401  0.99193  0.74695  Biso   1.000  Hf
  Hf14     1.0000 0.86481  0.48178  0.75509  Biso   1.000  Hf
  Hf15     1.0000 0.85600  0.98239  0.76102  Biso   1.000  Hf
  Hf16     1.0000 0.03419  0.19810  0.38655  Biso   1.000  Hf
  Hf17     1.0000 0.03803  0.69051  0.38841  Biso   1.000  Hf
  Hf18     1.0000 0.53299  0.18070  0.39675  Biso   1.000  Hf
  Hf19     1.0000 0.53768  0.67990  0.39749  Biso   1.000  Hf
  Hf20     1.0000 0.02781  0.07233  0.84466  Biso   1.000  Hf
  Hf21     1.0000 0.03313  0.56693  0.89232  Biso   1.000  Hf
  Hf22     1.0000 0.54020  0.06566  0.89361  Biso   1.000  Hf
  Hf23     1.0000 0.52865  0.56862  0.90622  Biso   1.000  Hf
  Hf24     1.0000 0.46543  0.43166  0.39760  Biso   1.000  Hf
  Hf25     1.0000 0.44646  0.93261  0.37352  Biso   1.000  Hf
  Hf26     1.0000 0.96117  0.44214  0.39022  Biso   1.000  Hf
  Hf27     1.0000 0.93793  0.92634  0.41584  Biso   1.000  Hf
  Hf28     1.0000 0.46504  0.31727  0.89474  Biso   1.000  Hf
  Hf29     1.0000 0.47186  0.81893  0.88553  Biso   1.000  Hf
  Hf30     1.0000 0.96240  0.31942  0.89344  Biso   1.000  Hf
  Hf31     1.0000 0.96765  0.82094  0.91764  Biso   1.000  Hf
  Hf32     1.0000 0.27631  0.12416  0.50639  Biso   1.000  Hf
  Hf33     1.0000 0.27105  0.62120  0.49717  Biso   1.000  Hf
  Hf34     1.0000 0.76649  0.11871  0.50861  Biso   1.000  Hf
  Hf35     1.0000 0.76913  0.61770  0.50422  Biso   1.000  Hf
  Hf36     1.0000 0.27497  0.13525  0.98860  Biso   1.000  Hf
  Hf37     1.0000 0.26632  0.62744  0.99616  Biso   1.000  Hf
  Hf38     1.0000 0.76749  0.13308  0.01234  Biso   1.000  Hf
  Hf39     1.0000 0.77011  0.62874  0.00270  Biso   1.000  Hf
  Hf40     1.0000 0.23001  0.38335  0.00105  Biso   1.000  Hf
  Hf41     1.0000 0.23781  0.87181  0.92853  Biso   1.000  Hf
  Hf42     1.0000 0.72666  0.38233  0.99920  Biso   1.000  Hf
  Hf43     1.0000 0.72854  0.87881  0.01342  Biso   1.000  Hf
  Hf44     1.0000 0.22843  0.37186  0.49911  Biso   1.000  Hf
  Hf45     1.0000 0.72976  0.36786  0.50178  Biso   1.000  Hf
  Hf46     1.0000 0.71115  0.86872  0.51056  Biso   1.000  Hf
