data_image0
_cell_length_a       5.00268
_cell_length_b       10.3949
_cell_length_c       10.0673
_cell_angle_alpha    90
_cell_angle_beta     90
_cell_angle_gamma    90

_symmetry_space_group_name_H-M    "P 1"
_symmetry_int_tables_number       1

loop_
  _symmetry_equiv_pos_as_xyz
  'x, y, z'

loop_
  _atom_site_label
  _atom_site_occupancy
  _atom_site_fract_x
  _atom_site_fract_y
  _atom_site_fract_z
  _atom_site_thermal_displace_type
  _atom_site_B_iso_or_equiv
  _atom_site_type_symbol
  La1      1.0000 0.23933  0.99838  0.12404  Biso   1.000  La
  Hf1      1.0000 0.26237  0.01552  0.62709  Biso   1.000  Hf
  Hf2      1.0000 0.26205  0.51278  0.12594  Biso   1.000  Hf
  Hf3      1.0000 0.26741  0.51465  0.62532  Biso   1.000  Hf
  Hf4      1.0000 0.26665  0.23143  0.37501  Biso   1.000  Hf
  Hf5      1.0000 0.26868  0.23231  0.87274  Biso   1.000  Hf
  Hf6      1.0000 0.27111  0.73193  0.37859  Biso   1.000  Hf
  Hf7      1.0000 0.27047  0.72993  0.87527  Biso   1.000  Hf
  Hf8      1.0000 0.72370  0.26498  0.12690  Biso   1.000  Hf
  Hf9      1.0000 0.73179  0.26608  0.62434  Biso   1.000  Hf
  Hf10     1.0000 0.72976  0.75062  0.12058  Biso   1.000  Hf
  Hf11     1.0000 0.73248  0.76355  0.62430  Biso   1.000  Hf
  Hf12     1.0000 0.73085  0.48109  0.37636  Biso   1.000  Hf
  Hf13     1.0000 0.73236  0.47795  0.87562  Biso   1.000  Hf
  Hf14     1.0000 0.72192  0.98444  0.38537  Biso   1.000  Hf
  Hf15     1.0000 0.72925  0.98188  0.87088  Biso   1.000  Hf
  Hf16     1.0000 0.06174  0.19204  0.19908  Biso   1.000  Hf
  Hf17     1.0000 0.07661  0.18621  0.68421  Biso   1.000  Hf
  Hf18     1.0000 0.08137  0.69517  0.19641  Biso   1.000  Hf
  Hf19     1.0000 0.06862  0.68188  0.69740  Biso   1.000  Hf
  Hf20     1.0000 0.07704  0.06038  0.43763  Biso   1.000  Hf
  Hf21     1.0000 0.06778  0.06911  0.91850  Biso   1.000  Hf
  Hf22     1.0000 0.07039  0.56555  0.44556  Biso   1.000  Hf
  Hf23     1.0000 0.05751  0.57059  0.95059  Biso   1.000  Hf
  Hf24     1.0000 0.91991  0.43904  0.19447  Biso   1.000  Hf
  Hf25     1.0000 0.93064  0.43257  0.69623  Biso   1.000  Hf
  Hf26     1.0000 0.92312  0.93115  0.69156  Biso   1.000  Hf
  Hf27     1.0000 0.92650  0.31538  0.44461  Biso   1.000  Hf
  Hf28     1.0000 0.93131  0.31656  0.94589  Biso   1.000  Hf
  Hf29     1.0000 0.93174  0.81545  0.44654  Biso   1.000  Hf
  Hf30     1.0000 0.96791  0.82827  0.96497  Biso   1.000  Hf
  Hf31     1.0000 0.55770  0.11974  0.25597  Biso   1.000  Hf
  Hf32     1.0000 0.54110  0.11688  0.74727  Biso   1.000  Hf
  Hf33     1.0000 0.53246  0.61002  0.24916  Biso   1.000  Hf
  Hf34     1.0000 0.54054  0.61532  0.74926  Biso   1.000  Hf
  Hf35     1.0000 0.53733  0.13002  0.50300  Biso   1.000  Hf
  Hf36     1.0000 0.54644  0.13064  0.99480  Biso   1.000  Hf
  Hf37     1.0000 0.54202  0.63013  0.49943  Biso   1.000  Hf
  Hf38     1.0000 0.53483  0.62239  0.99790  Biso   1.000  Hf
  Hf39     1.0000 0.45811  0.38112  0.49953  Biso   1.000  Hf
  Hf40     1.0000 0.45471  0.37955  0.99936  Biso   1.000  Hf
  Hf41     1.0000 0.45337  0.88003  0.50203  Biso   1.000  Hf
  Hf42     1.0000 0.49425  0.86341  0.99068  Biso   1.000  Hf
  Hf43     1.0000 0.45373  0.36611  0.24971  Biso   1.000  Hf
  Hf44     1.0000 0.46050  0.36701  0.74847  Biso   1.000  Hf
  Hf45     1.0000 0.51409  0.85525  0.25702  Biso   1.000  Hf
  Hf46     1.0000 0.45626  0.86597  0.74712  Biso   1.000  Hf
