data_image0
_cell_length_a       10.1839
_cell_length_b       5.17766
_cell_length_c       10.437
_cell_angle_alpha    90
_cell_angle_beta     80
_cell_angle_gamma    90

_symmetry_space_group_name_H-M    "P 1"
_symmetry_int_tables_number       1

loop_
  _symmetry_equiv_pos_as_xyz
  'x, y, z'

loop_
  _atom_site_label
  _atom_site_occupancy
  _atom_site_fract_x
  _atom_site_fract_y
  _atom_site_fract_z
  _atom_site_thermal_displace_type
  _atom_site_B_iso_or_equiv
  _atom_site_type_symbol
  La1      1.0000 0.12906  0.01671  0.14143  Biso   1.000  La
  Hf1      1.0000 0.12230  0.02974  0.64751  Biso   1.000  Hf
  Hf2      1.0000 0.63694  0.03574  0.14744  Biso   1.000  Hf
  Hf3      1.0000 0.62261  0.03437  0.64922  Biso   1.000  Hf
  Hf4      1.0000 0.11831  0.45040  0.40647  Biso   1.000  Hf
  Hf5      1.0000 0.11569  0.45080  0.89644  Biso   1.000  Hf
  Hf6      1.0000 0.62541  0.44938  0.39952  Biso   1.000  Hf
  Hf7      1.0000 0.62269  0.44473  0.89732  Biso   1.000  Hf
  Hf8      1.0000 0.37069  0.54399  0.08967  Biso   1.000  Hf
  Hf9      1.0000 0.34340  0.52838  0.60595  Biso   1.000  Hf
  Hf10     1.0000 0.85337  0.53738  0.10557  Biso   1.000  Hf
  Hf11     1.0000 0.84390  0.53543  0.60953  Biso   1.000  Hf
  Hf12     1.0000 0.35403  0.93299  0.35836  Biso   1.000  Hf
  Hf13     1.0000 0.34171  0.94811  0.85212  Biso   1.000  Hf
  Hf14     1.0000 0.84140  0.95364  0.36130  Biso   1.000  Hf
  Hf15     1.0000 0.83985  0.94571  0.85851  Biso   1.000  Hf
  Hf16     1.0000 0.03862  0.40002  0.08419  Biso   1.000  Hf
  Hf17     1.0000 0.02277  0.34787  0.59618  Biso   1.000  Hf
  Hf18     1.0000 0.53963  0.34238  0.08019  Biso   1.000  Hf
  Hf19     1.0000 0.51855  0.32803  0.58453  Biso   1.000  Hf
  Hf20     1.0000 0.02092  0.14701  0.35090  Biso   1.000  Hf
  Hf21     1.0000 0.02199  0.13060  0.84165  Biso   1.000  Hf
  Hf22     1.0000 0.52433  0.15128  0.33349  Biso   1.000  Hf
  Hf23     1.0000 0.51952  0.15088  0.83198  Biso   1.000  Hf
  Hf24     1.0000 0.45096  0.86014  0.16574  Biso   1.000  Hf
  Hf25     1.0000 0.44547  0.82728  0.66921  Biso   1.000  Hf
  Hf26     1.0000 0.91973  0.86597  0.17095  Biso   1.000  Hf
  Hf27     1.0000 0.94203  0.84377  0.66873  Biso   1.000  Hf
  Hf28     1.0000 0.44879  0.64189  0.42201  Biso   1.000  Hf
  Hf29     1.0000 0.45449  0.65937  0.91887  Biso   1.000  Hf
  Hf30     1.0000 0.94527  0.64918  0.42040  Biso   1.000  Hf
  Hf31     1.0000 0.93621  0.63798  0.91596  Biso   1.000  Hf
  Hf32     1.0000 0.25809  0.24571  0.73944  Biso   1.000  Hf
  Hf33     1.0000 0.76435  0.26206  0.24646  Biso   1.000  Hf
  Hf34     1.0000 0.76042  0.24880  0.74446  Biso   1.000  Hf
  Hf35     1.0000 0.26201  0.22896  0.48402  Biso   1.000  Hf
  Hf36     1.0000 0.26271  0.23465  0.98704  Biso   1.000  Hf
  Hf37     1.0000 0.75954  0.23636  0.49675  Biso   1.000  Hf
  Hf38     1.0000 0.75353  0.22256  0.99559  Biso   1.000  Hf
  Hf39     1.0000 0.21709  0.72691  0.99327  Biso   1.000  Hf
  Hf40     1.0000 0.20787  0.75065  0.51137  Biso   1.000  Hf
  Hf41     1.0000 0.72203  0.75880  0.00924  Biso   1.000  Hf
  Hf42     1.0000 0.70667  0.75056  0.51413  Biso   1.000  Hf
  Hf43     1.0000 0.23345  0.66553  0.26014  Biso   1.000  Hf
  Hf44     1.0000 0.20306  0.72963  0.75628  Biso   1.000  Hf
  Hf45     1.0000 0.69763  0.73679  0.26679  Biso   1.000  Hf
  Hf46     1.0000 0.70585  0.73054  0.76153  Biso   1.000  Hf
