data_image0
_cell_length_a       10.1758
_cell_length_b       5.14143
_cell_length_c       10.5284
_cell_angle_alpha    90
_cell_angle_beta     80
_cell_angle_gamma    90

_symmetry_space_group_name_H-M    "P 1"
_symmetry_int_tables_number       1

loop_
  _symmetry_equiv_pos_as_xyz
  'x, y, z'

loop_
  _atom_site_label
  _atom_site_occupancy
  _atom_site_fract_x
  _atom_site_fract_y
  _atom_site_fract_z
  _atom_site_thermal_displace_type
  _atom_site_B_iso_or_equiv
  _atom_site_type_symbol
  La1      1.0000 0.11970  0.03819  0.13211  Biso   1.000  La
  Hf1      1.0000 0.12540  0.04002  0.64536  Biso   1.000  Hf
  Hf2      1.0000 0.63016  0.03978  0.14749  Biso   1.000  Hf
  Hf3      1.0000 0.62611  0.04155  0.64837  Biso   1.000  Hf
  Hf4      1.0000 0.12816  0.45678  0.39571  Biso   1.000  Hf
  Hf5      1.0000 0.12815  0.46915  0.88441  Biso   1.000  Hf
  Hf6      1.0000 0.62590  0.45230  0.39843  Biso   1.000  Hf
  Hf7      1.0000 0.62067  0.45388  0.89702  Biso   1.000  Hf
  Hf8      1.0000 0.36085  0.53777  0.10220  Biso   1.000  Hf
  Hf9      1.0000 0.35030  0.54290  0.60056  Biso   1.000  Hf
  Hf10     1.0000 0.84294  0.54120  0.10944  Biso   1.000  Hf
  Hf11     1.0000 0.84983  0.54101  0.60992  Biso   1.000  Hf
  Hf12     1.0000 0.35012  0.95819  0.35140  Biso   1.000  Hf
  Hf13     1.0000 0.34928  0.95484  0.85275  Biso   1.000  Hf
  Hf14     1.0000 0.84897  0.94990  0.36318  Biso   1.000  Hf
  Hf15     1.0000 0.84752  0.95159  0.86136  Biso   1.000  Hf
  Hf16     1.0000 0.02112  0.32831  0.58318  Biso   1.000  Hf
  Hf17     1.0000 0.53572  0.33481  0.07521  Biso   1.000  Hf
  Hf18     1.0000 0.52040  0.32682  0.57802  Biso   1.000  Hf
  Hf19     1.0000 0.00989  0.19260  0.33274  Biso   1.000  Hf
  Hf20     1.0000 0.02088  0.15975  0.84125  Biso   1.000  Hf
  Hf21     1.0000 0.52569  0.16475  0.32721  Biso   1.000  Hf
  Hf22     1.0000 0.51922  0.16870  0.82686  Biso   1.000  Hf
  Hf23     1.0000 0.45966  0.83468  0.17019  Biso   1.000  Hf
  Hf24     1.0000 0.45490  0.82816  0.67302  Biso   1.000  Hf
  Hf25     1.0000 0.94925  0.77363  0.19778  Biso   1.000  Hf
  Hf26     1.0000 0.95590  0.82035  0.68648  Biso   1.000  Hf
  Hf27     1.0000 0.45537  0.66629  0.42225  Biso   1.000  Hf
  Hf28     1.0000 0.45545  0.67406  0.92427  Biso   1.000  Hf
  Hf29     1.0000 0.95992  0.68804  0.43919  Biso   1.000  Hf
  Hf30     1.0000 0.95018  0.66436  0.94214  Biso   1.000  Hf
  Hf31     1.0000 0.27372  0.26076  0.24082  Biso   1.000  Hf
  Hf32     1.0000 0.26084  0.25729  0.73349  Biso   1.000  Hf
  Hf33     1.0000 0.76906  0.24951  0.24119  Biso   1.000  Hf
  Hf34     1.0000 0.76366  0.25055  0.74467  Biso   1.000  Hf
  Hf35     1.0000 0.26216  0.24254  0.48819  Biso   1.000  Hf
  Hf36     1.0000 0.25901  0.25349  0.97730  Biso   1.000  Hf
  Hf37     1.0000 0.76205  0.24288  0.49571  Biso   1.000  Hf
  Hf38     1.0000 0.75511  0.23589  0.99453  Biso   1.000  Hf
  Hf39     1.0000 0.21650  0.73762  0.99767  Biso   1.000  Hf
  Hf40     1.0000 0.21321  0.76092  0.50983  Biso   1.000  Hf
  Hf41     1.0000 0.72497  0.76050  0.01043  Biso   1.000  Hf
  Hf42     1.0000 0.71250  0.75354  0.51444  Biso   1.000  Hf
  Hf43     1.0000 0.22200  0.73029  0.26058  Biso   1.000  Hf
  Hf44     1.0000 0.21307  0.74587  0.75521  Biso   1.000  Hf
  Hf45     1.0000 0.70630  0.73907  0.26388  Biso   1.000  Hf
  Hf46     1.0000 0.71238  0.73855  0.76398  Biso   1.000  Hf
