data_image0
_cell_length_a       5.01294
_cell_length_b       10.4075
_cell_length_c       10.0838
_cell_angle_alpha    90
_cell_angle_beta     90
_cell_angle_gamma    90

_symmetry_space_group_name_H-M    "P 1"
_symmetry_int_tables_number       1

loop_
  _symmetry_equiv_pos_as_xyz
  'x, y, z'

loop_
  _atom_site_label
  _atom_site_occupancy
  _atom_site_fract_x
  _atom_site_fract_y
  _atom_site_fract_z
  _atom_site_thermal_displace_type
  _atom_site_B_iso_or_equiv
  _atom_site_type_symbol
  La1      1.0000 0.25262  0.00509  0.12052  Biso   1.000  La
  Hf1      1.0000 0.27321  0.01386  0.62570  Biso   1.000  Hf
  Hf2      1.0000 0.26012  0.51744  0.12774  Biso   1.000  Hf
  Hf3      1.0000 0.27416  0.51599  0.62899  Biso   1.000  Hf
  Hf4      1.0000 0.28198  0.23568  0.38812  Biso   1.000  Hf
  Hf5      1.0000 0.27120  0.23400  0.86913  Biso   1.000  Hf
  Hf6      1.0000 0.26897  0.72867  0.38180  Biso   1.000  Hf
  Hf7      1.0000 0.28060  0.73045  0.87622  Biso   1.000  Hf
  Hf8      1.0000 0.69731  0.27124  0.12285  Biso   1.000  Hf
  Hf9      1.0000 0.74118  0.26537  0.62568  Biso   1.000  Hf
  Hf10     1.0000 0.72966  0.76177  0.12799  Biso   1.000  Hf
  Hf11     1.0000 0.73845  0.76441  0.62406  Biso   1.000  Hf
  Hf12     1.0000 0.73512  0.48153  0.37547  Biso   1.000  Hf
  Hf13     1.0000 0.74107  0.48092  0.87704  Biso   1.000  Hf
  Hf14     1.0000 0.73088  0.98187  0.37684  Biso   1.000  Hf
  Hf15     1.0000 0.74125  0.98048  0.86939  Biso   1.000  Hf
  Hf16     1.0000 0.09129  0.18810  0.67818  Biso   1.000  Hf
  Hf17     1.0000 0.06685  0.68093  0.20083  Biso   1.000  Hf
  Hf18     1.0000 0.07861  0.68261  0.69536  Biso   1.000  Hf
  Hf19     1.0000 0.08224  0.06352  0.43184  Biso   1.000  Hf
  Hf20     1.0000 0.07831  0.06927  0.91159  Biso   1.000  Hf
  Hf21     1.0000 0.07152  0.56101  0.44907  Biso   1.000  Hf
  Hf22     1.0000 0.07297  0.56749  0.94741  Biso   1.000  Hf
  Hf23     1.0000 0.92353  0.42527  0.19556  Biso   1.000  Hf
  Hf24     1.0000 0.94014  0.43119  0.69842  Biso   1.000  Hf
  Hf25     1.0000 0.86793  0.93865  0.19415  Biso   1.000  Hf
  Hf26     1.0000 0.93245  0.93183  0.68878  Biso   1.000  Hf
  Hf27     1.0000 0.92695  0.31319  0.44181  Biso   1.000  Hf
  Hf28     1.0000 0.93695  0.31644  0.94680  Biso   1.000  Hf
  Hf29     1.0000 0.93147  0.81549  0.44560  Biso   1.000  Hf
  Hf30     1.0000 0.96839  0.82316  0.95671  Biso   1.000  Hf
  Hf31     1.0000 0.54829  0.13524  0.25606  Biso   1.000  Hf
  Hf32     1.0000 0.55064  0.11662  0.74525  Biso   1.000  Hf
  Hf33     1.0000 0.53809  0.61163  0.25026  Biso   1.000  Hf
  Hf34     1.0000 0.55121  0.61591  0.75028  Biso   1.000  Hf
  Hf35     1.0000 0.54736  0.12956  0.50279  Biso   1.000  Hf
  Hf36     1.0000 0.55698  0.13471  0.98953  Biso   1.000  Hf
  Hf37     1.0000 0.54451  0.62945  0.50105  Biso   1.000  Hf
  Hf38     1.0000 0.54140  0.62805  0.00125  Biso   1.000  Hf
  Hf39     1.0000 0.46745  0.38156  0.50246  Biso   1.000  Hf
  Hf40     1.0000 0.45737  0.38429  0.00029  Biso   1.000  Hf
  Hf41     1.0000 0.46105  0.88001  0.50191  Biso   1.000  Hf
  Hf42     1.0000 0.49663  0.86659  0.98999  Biso   1.000  Hf
  Hf43     1.0000 0.43782  0.37163  0.25194  Biso   1.000  Hf
  Hf44     1.0000 0.47084  0.36820  0.74964  Biso   1.000  Hf
  Hf45     1.0000 0.46077  0.85138  0.25922  Biso   1.000  Hf
  Hf46     1.0000 0.46607  0.86602  0.74696  Biso   1.000  Hf
