data_image0
_cell_length_a       5.05913
_cell_length_b       10.24
_cell_length_c       10.0867
_cell_angle_alpha    90
_cell_angle_beta     90
_cell_angle_gamma    90

_symmetry_space_group_name_H-M    "P 1"
_symmetry_int_tables_number       1

loop_
  _symmetry_equiv_pos_as_xyz
  'x, y, z'

loop_
  _atom_site_label
  _atom_site_occupancy
  _atom_site_fract_x
  _atom_site_fract_y
  _atom_site_fract_z
  _atom_site_thermal_displace_type
  _atom_site_B_iso_or_equiv
  _atom_site_type_symbol
  La1      1.0000 0.34383  0.97937  0.13197  Biso   1.000  La
  Hf1      1.0000 0.23421  0.00617  0.60834  Biso   1.000  Hf
  Hf2      1.0000 0.26998  0.49681  0.12413  Biso   1.000  Hf
  Hf3      1.0000 0.31650  0.50204  0.61589  Biso   1.000  Hf
  Hf4      1.0000 0.26858  0.26111  0.37314  Biso   1.000  Hf
  Hf5      1.0000 0.26035  0.24140  0.89362  Biso   1.000  Hf
  Hf6      1.0000 0.23075  0.75664  0.37799  Biso   1.000  Hf
  Hf7      1.0000 0.26476  0.72238  0.86764  Biso   1.000  Hf
  Hf8      1.0000 0.80356  0.23175  0.11352  Biso   1.000  Hf
  Hf9      1.0000 0.72182  0.22905  0.64724  Biso   1.000  Hf
  Hf10     1.0000 0.80451  0.73801  0.10881  Biso   1.000  Hf
  Hf11     1.0000 0.74232  0.75893  0.60404  Biso   1.000  Hf
  Hf12     1.0000 0.77125  0.02607  0.37954  Biso   1.000  Hf
  Hf13     1.0000 0.78750  0.96355  0.86697  Biso   1.000  Hf
  Hf14     1.0000 0.80367  0.49052  0.38958  Biso   1.000  Hf
  Hf15     1.0000 0.78179  0.48349  0.86695  Biso   1.000  Hf
  Hf16     1.0000 0.00718  0.11944  0.98874  Biso   1.000  Hf
  Hf17     1.0000 0.99308  0.15290  0.49966  Biso   1.000  Hf
  Hf18     1.0000 0.01968  0.61735  0.99668  Biso   1.000  Hf
  Hf19     1.0000 0.01627  0.63604  0.51224  Biso   1.000  Hf
  Hf20     1.0000 0.03454  0.12607  0.25683  Biso   1.000  Hf
  Hf21     1.0000 0.91686  0.06264  0.72469  Biso   1.000  Hf
  Hf22     1.0000 0.99481  0.61343  0.25252  Biso   1.000  Hf
  Hf23     1.0000 0.08067  0.56163  0.76470  Biso   1.000  Hf
  Hf24     1.0000 0.98868  0.36250  0.25375  Biso   1.000  Hf
  Hf25     1.0000 0.97105  0.31803  0.77079  Biso   1.000  Hf
  Hf26     1.0000 0.93154  0.87229  0.25279  Biso   1.000  Hf
  Hf27     1.0000 0.99474  0.81052  0.75435  Biso   1.000  Hf
  Hf28     1.0000 0.02238  0.38205  0.00868  Biso   1.000  Hf
  Hf29     1.0000 0.07988  0.39436  0.49910  Biso   1.000  Hf
  Hf30     1.0000 0.02149  0.85752  0.99481  Biso   1.000  Hf
  Hf31     1.0000 0.01734  0.88998  0.51002  Biso   1.000  Hf
  Hf32     1.0000 0.54536  0.15631  0.25498  Biso   1.000  Hf
  Hf33     1.0000 0.42502  0.13354  0.74457  Biso   1.000  Hf
  Hf34     1.0000 0.45319  0.74086  0.21611  Biso   1.000  Hf
  Hf35     1.0000 0.56356  0.63017  0.74215  Biso   1.000  Hf
  Hf36     1.0000 0.52569  0.09607  0.98962  Biso   1.000  Hf
  Hf37     1.0000 0.48815  0.11970  0.49968  Biso   1.000  Hf
  Hf38     1.0000 0.55866  0.58873  0.00587  Biso   1.000  Hf
  Hf39     1.0000 0.51353  0.62223  0.48053  Biso   1.000  Hf
  Hf40     1.0000 0.50393  0.34583  0.03584  Biso   1.000  Hf
  Hf41     1.0000 0.57475  0.36594  0.51507  Biso   1.000  Hf
  Hf42     1.0000 0.53893  0.83160  0.97394  Biso   1.000  Hf
  Hf43     1.0000 0.52085  0.87308  0.47582  Biso   1.000  Hf
  Hf44     1.0000 0.47186  0.43414  0.28349  Biso   1.000  Hf
  Hf45     1.0000 0.48939  0.37967  0.76536  Biso   1.000  Hf
  Hf46     1.0000 0.50720  0.88256  0.73139  Biso   1.000  Hf
