data_image0
_cell_length_a       10.0593
_cell_length_b       10.4389
_cell_length_c       5.02349
_cell_angle_alpha    90
_cell_angle_beta     90
_cell_angle_gamma    90

_symmetry_space_group_name_H-M    "P 1"
_symmetry_int_tables_number       1

loop_
  _symmetry_equiv_pos_as_xyz
  'x, y, z'

loop_
  _atom_site_label
  _atom_site_occupancy
  _atom_site_fract_x
  _atom_site_fract_y
  _atom_site_fract_z
  _atom_site_thermal_displace_type
  _atom_site_B_iso_or_equiv
  _atom_site_type_symbol
  La1      1.0000 0.12447  0.00892  0.24952  Biso   1.000  La
  Hf1      1.0000 0.12610  0.51720  0.25363  Biso   1.000  Hf
  Hf2      1.0000 0.63665  0.01722  0.25340  Biso   1.000  Hf
  Hf3      1.0000 0.62922  0.51642  0.25512  Biso   1.000  Hf
  Hf4      1.0000 0.11855  0.24505  0.73418  Biso   1.000  Hf
  Hf5      1.0000 0.12800  0.73433  0.75294  Biso   1.000  Hf
  Hf6      1.0000 0.62713  0.23501  0.75554  Biso   1.000  Hf
  Hf7      1.0000 0.62702  0.73141  0.75468  Biso   1.000  Hf
  Hf8      1.0000 0.36696  0.27299  0.26886  Biso   1.000  Hf
  Hf9      1.0000 0.36376  0.76073  0.24222  Biso   1.000  Hf
  Hf10     1.0000 0.85718  0.27182  0.25556  Biso   1.000  Hf
  Hf11     1.0000 0.85584  0.76491  0.25839  Biso   1.000  Hf
  Hf12     1.0000 0.35629  0.48376  0.75901  Biso   1.000  Hf
  Hf13     1.0000 0.36733  0.97511  0.72741  Biso   1.000  Hf
  Hf14     1.0000 0.85789  0.48657  0.75566  Biso   1.000  Hf
  Hf15     1.0000 0.85140  0.98389  0.75627  Biso   1.000  Hf
  Hf16     1.0000 0.03094  0.20679  0.37406  Biso   1.000  Hf
  Hf17     1.0000 0.03040  0.68806  0.39186  Biso   1.000  Hf
  Hf18     1.0000 0.53633  0.18432  0.38879  Biso   1.000  Hf
  Hf19     1.0000 0.52968  0.68029  0.39423  Biso   1.000  Hf
  Hf20     1.0000 0.03464  0.07422  0.82652  Biso   1.000  Hf
  Hf21     1.0000 0.02730  0.56939  0.89056  Biso   1.000  Hf
  Hf22     1.0000 0.53187  0.06754  0.89159  Biso   1.000  Hf
  Hf23     1.0000 0.52516  0.56518  0.89907  Biso   1.000  Hf
  Hf24     1.0000 0.46130  0.43269  0.40280  Biso   1.000  Hf
  Hf25     1.0000 0.45707  0.93344  0.37305  Biso   1.000  Hf
  Hf26     1.0000 0.95402  0.44276  0.39216  Biso   1.000  Hf
  Hf27     1.0000 0.93101  0.92957  0.40571  Biso   1.000  Hf
  Hf28     1.0000 0.45437  0.31337  0.89745  Biso   1.000  Hf
  Hf29     1.0000 0.46422  0.81471  0.88950  Biso   1.000  Hf
  Hf30     1.0000 0.95219  0.32221  0.89075  Biso   1.000  Hf
  Hf31     1.0000 0.96371  0.82484  0.91261  Biso   1.000  Hf
  Hf32     1.0000 0.27982  0.13105  0.53011  Biso   1.000  Hf
  Hf33     1.0000 0.26334  0.61330  0.49954  Biso   1.000  Hf
  Hf34     1.0000 0.76666  0.12124  0.50679  Biso   1.000  Hf
  Hf35     1.0000 0.76333  0.61936  0.50153  Biso   1.000  Hf
  Hf36     1.0000 0.26093  0.63046  0.99985  Biso   1.000  Hf
  Hf37     1.0000 0.76909  0.13290  0.00463  Biso   1.000  Hf
  Hf38     1.0000 0.76517  0.62999  0.00113  Biso   1.000  Hf
  Hf39     1.0000 0.22556  0.37734  0.00382  Biso   1.000  Hf
  Hf40     1.0000 0.23592  0.87906  0.97675  Biso   1.000  Hf
  Hf41     1.0000 0.72278  0.38292  0.00208  Biso   1.000  Hf
  Hf42     1.0000 0.72477  0.87949  0.00852  Biso   1.000  Hf
  Hf43     1.0000 0.22476  0.37442  0.49855  Biso   1.000  Hf
  Hf44     1.0000 0.23642  0.85307  0.49914  Biso   1.000  Hf
  Hf45     1.0000 0.72239  0.37091  0.50527  Biso   1.000  Hf
  Hf46     1.0000 0.71016  0.86826  0.50942  Biso   1.000  Hf
