data_image0
_cell_length_a       5.08065
_cell_length_b       10.3736
_cell_length_c       10.4694
_cell_angle_alpha    90
_cell_angle_beta     80
_cell_angle_gamma    90

_symmetry_space_group_name_H-M    "P 1"
_symmetry_int_tables_number       1

loop_
  _symmetry_equiv_pos_as_xyz
  'x, y, z'

loop_
  _atom_site_label
  _atom_site_occupancy
  _atom_site_fract_x
  _atom_site_fract_y
  _atom_site_fract_z
  _atom_site_thermal_displace_type
  _atom_site_B_iso_or_equiv
  _atom_site_type_symbol
  La1      1.0000 0.26393  0.01089  0.14309  Biso   1.000  La
  Hf1      1.0000 0.25156  0.01323  0.64769  Biso   1.000  Hf
  Hf2      1.0000 0.26459  0.51953  0.14422  Biso   1.000  Hf
  Hf3      1.0000 0.24283  0.51216  0.64840  Biso   1.000  Hf
  Hf4      1.0000 0.24275  0.22660  0.40451  Biso   1.000  Hf
  Hf5      1.0000 0.24230  0.22032  0.89468  Biso   1.000  Hf
  Hf6      1.0000 0.25283  0.71472  0.40090  Biso   1.000  Hf
  Hf7      1.0000 0.24175  0.71947  0.89720  Biso   1.000  Hf
  Hf8      1.0000 0.72556  0.27865  0.09031  Biso   1.000  Hf
  Hf9      1.0000 0.69143  0.26347  0.60678  Biso   1.000  Hf
  Hf10     1.0000 0.71150  0.76551  0.10685  Biso   1.000  Hf
  Hf11     1.0000 0.68962  0.76124  0.60834  Biso   1.000  Hf
  Hf12     1.0000 0.69973  0.47085  0.35372  Biso   1.000  Hf
  Hf13     1.0000 0.68330  0.47203  0.85357  Biso   1.000  Hf
  Hf14     1.0000 0.69666  0.96505  0.36662  Biso   1.000  Hf
  Hf15     1.0000 0.68855  0.96699  0.85676  Biso   1.000  Hf
  Hf16     1.0000 0.07105  0.18996  0.07382  Biso   1.000  Hf
  Hf17     1.0000 0.04653  0.16819  0.59212  Biso   1.000  Hf
  Hf18     1.0000 0.07517  0.67778  0.08799  Biso   1.000  Hf
  Hf19     1.0000 0.04295  0.66289  0.58734  Biso   1.000  Hf
  Hf20     1.0000 0.04704  0.07258  0.35137  Biso   1.000  Hf
  Hf21     1.0000 0.04930  0.06709  0.83450  Biso   1.000  Hf
  Hf22     1.0000 0.05673  0.56600  0.33486  Biso   1.000  Hf
  Hf23     1.0000 0.03583  0.56906  0.83472  Biso   1.000  Hf
  Hf24     1.0000 0.90998  0.42633  0.16591  Biso   1.000  Hf
  Hf25     1.0000 0.89098  0.41538  0.66747  Biso   1.000  Hf
  Hf26     1.0000 0.82838  0.93923  0.17122  Biso   1.000  Hf
  Hf27     1.0000 0.89316  0.91110  0.67125  Biso   1.000  Hf
  Hf28     1.0000 0.89552  0.32161  0.42098  Biso   1.000  Hf
  Hf29     1.0000 0.88980  0.32337  0.91249  Biso   1.000  Hf
  Hf30     1.0000 0.89953  0.81588  0.42032  Biso   1.000  Hf
  Hf31     1.0000 0.90609  0.82444  0.92792  Biso   1.000  Hf
  Hf32     1.0000 0.52528  0.11992  0.73891  Biso   1.000  Hf
  Hf33     1.0000 0.53630  0.61630  0.24137  Biso   1.000  Hf
  Hf34     1.0000 0.51718  0.62066  0.74259  Biso   1.000  Hf
  Hf35     1.0000 0.52291  0.11357  0.48735  Biso   1.000  Hf
  Hf36     1.0000 0.53098  0.11596  0.98425  Biso   1.000  Hf
  Hf37     1.0000 0.52727  0.61085  0.49328  Biso   1.000  Hf
  Hf38     1.0000 0.51003  0.60757  0.99402  Biso   1.000  Hf
  Hf39     1.0000 0.44465  0.38586  0.00350  Biso   1.000  Hf
  Hf40     1.0000 0.41778  0.37322  0.51039  Biso   1.000  Hf
  Hf41     1.0000 0.43394  0.85337  0.99945  Biso   1.000  Hf
  Hf42     1.0000 0.41795  0.86961  0.51651  Biso   1.000  Hf
  Hf43     1.0000 0.43883  0.35122  0.25606  Biso   1.000  Hf
  Hf44     1.0000 0.41357  0.36201  0.75843  Biso   1.000  Hf
  Hf45     1.0000 0.42668  0.84799  0.27243  Biso   1.000  Hf
  Hf46     1.0000 0.41288  0.86142  0.76027  Biso   1.000  Hf
