data_image0
_cell_length_a       5.00789
_cell_length_b       10.4409
_cell_length_c       10.047
_cell_angle_alpha    90
_cell_angle_beta     90
_cell_angle_gamma    90

_symmetry_space_group_name_H-M    "P 1"
_symmetry_int_tables_number       1

loop_
  _symmetry_equiv_pos_as_xyz
  'x, y, z'

loop_
  _atom_site_label
  _atom_site_occupancy
  _atom_site_fract_x
  _atom_site_fract_y
  _atom_site_fract_z
  _atom_site_thermal_displace_type
  _atom_site_B_iso_or_equiv
  _atom_site_type_symbol
  La1      1.0000 0.25979  0.00171  0.11832  Biso   1.000  La
  Hf1      1.0000 0.26348  0.01540  0.62773  Biso   1.000  Hf
  Hf2      1.0000 0.27231  0.51366  0.12789  Biso   1.000  Hf
  Hf3      1.0000 0.27242  0.50708  0.62409  Biso   1.000  Hf
  Hf4      1.0000 0.27070  0.22838  0.37315  Biso   1.000  Hf
  Hf5      1.0000 0.27843  0.23099  0.87024  Biso   1.000  Hf
  Hf6      1.0000 0.27256  0.72670  0.38409  Biso   1.000  Hf
  Hf7      1.0000 0.26102  0.71980  0.87084  Biso   1.000  Hf
  Hf8      1.0000 0.73401  0.26560  0.12775  Biso   1.000  Hf
  Hf9      1.0000 0.73674  0.26112  0.62023  Biso   1.000  Hf
  Hf10     1.0000 0.74900  0.75630  0.13463  Biso   1.000  Hf
  Hf11     1.0000 0.73258  0.76073  0.62709  Biso   1.000  Hf
  Hf12     1.0000 0.73653  0.47834  0.37559  Biso   1.000  Hf
  Hf13     1.0000 0.73818  0.47452  0.87493  Biso   1.000  Hf
  Hf14     1.0000 0.73689  0.97875  0.37906  Biso   1.000  Hf
  Hf15     1.0000 0.75988  0.98309  0.86708  Biso   1.000  Hf
  Hf16     1.0000 0.07090  0.19084  0.19533  Biso   1.000  Hf
  Hf17     1.0000 0.08440  0.18635  0.68221  Biso   1.000  Hf
  Hf18     1.0000 0.08168  0.68085  0.20207  Biso   1.000  Hf
  Hf19     1.0000 0.07264  0.67638  0.69487  Biso   1.000  Hf
  Hf20     1.0000 0.06981  0.05905  0.44176  Biso   1.000  Hf
  Hf21     1.0000 0.09738  0.05984  0.90441  Biso   1.000  Hf
  Hf22     1.0000 0.07621  0.55844  0.44688  Biso   1.000  Hf
  Hf23     1.0000 0.06196  0.56284  0.94995  Biso   1.000  Hf
  Hf24     1.0000 0.93007  0.43559  0.19406  Biso   1.000  Hf
  Hf25     1.0000 0.93417  0.42873  0.69627  Biso   1.000  Hf
  Hf26     1.0000 0.88370  0.93195  0.19606  Biso   1.000  Hf
  Hf27     1.0000 0.93710  0.92627  0.68815  Biso   1.000  Hf
  Hf28     1.0000 0.92816  0.31190  0.44217  Biso   1.000  Hf
  Hf29     1.0000 0.94052  0.31072  0.94336  Biso   1.000  Hf
  Hf30     1.0000 0.93155  0.80913  0.44762  Biso   1.000  Hf
  Hf31     1.0000 0.95763  0.82177  0.96015  Biso   1.000  Hf
  Hf32     1.0000 0.55738  0.12457  0.25672  Biso   1.000  Hf
  Hf33     1.0000 0.55178  0.11395  0.74355  Biso   1.000  Hf
  Hf34     1.0000 0.54445  0.60921  0.25118  Biso   1.000  Hf
  Hf35     1.0000 0.54079  0.60885  0.75024  Biso   1.000  Hf
  Hf36     1.0000 0.53393  0.12644  0.50101  Biso   1.000  Hf
  Hf37     1.0000 0.56582  0.12791  0.99043  Biso   1.000  Hf
  Hf38     1.0000 0.54686  0.62585  0.50257  Biso   1.000  Hf
  Hf39     1.0000 0.53644  0.64313  0.00001  Biso   1.000  Hf
  Hf40     1.0000 0.46281  0.37721  0.49810  Biso   1.000  Hf
  Hf41     1.0000 0.46606  0.37916  0.99788  Biso   1.000  Hf
  Hf42     1.0000 0.46303  0.87633  0.50862  Biso   1.000  Hf
  Hf43     1.0000 0.45824  0.36688  0.24891  Biso   1.000  Hf
  Hf44     1.0000 0.46821  0.36191  0.74662  Biso   1.000  Hf
  Hf45     1.0000 0.46951  0.84767  0.25953  Biso   1.000  Hf
  Hf46     1.0000 0.47445  0.86125  0.76480  Biso   1.000  Hf
