data_image0
_cell_length_a       10.0565
_cell_length_b       10.4467
_cell_length_c       5.0236
_cell_angle_alpha    90
_cell_angle_beta     90
_cell_angle_gamma    90

_symmetry_space_group_name_H-M    "P 1"
_symmetry_int_tables_number       1

loop_
  _symmetry_equiv_pos_as_xyz
  'x, y, z'

loop_
  _atom_site_label
  _atom_site_occupancy
  _atom_site_fract_x
  _atom_site_fract_y
  _atom_site_fract_z
  _atom_site_thermal_displace_type
  _atom_site_B_iso_or_equiv
  _atom_site_type_symbol
  La1      1.0000 0.12128  0.00499  0.24630  Biso   1.000  La
  Hf1      1.0000 0.12965  0.51345  0.24790  Biso   1.000  Hf
  Hf2      1.0000 0.63172  0.01345  0.25641  Biso   1.000  Hf
  Hf3      1.0000 0.63216  0.51503  0.25115  Biso   1.000  Hf
  Hf4      1.0000 0.12323  0.23611  0.74871  Biso   1.000  Hf
  Hf5      1.0000 0.13169  0.72669  0.75629  Biso   1.000  Hf
  Hf6      1.0000 0.63285  0.22773  0.75255  Biso   1.000  Hf
  Hf7      1.0000 0.63124  0.72637  0.75699  Biso   1.000  Hf
  Hf8      1.0000 0.37248  0.27015  0.22590  Biso   1.000  Hf
  Hf9      1.0000 0.36647  0.75958  0.25170  Biso   1.000  Hf
  Hf10     1.0000 0.86291  0.26868  0.25621  Biso   1.000  Hf
  Hf11     1.0000 0.86098  0.76245  0.26029  Biso   1.000  Hf
  Hf12     1.0000 0.36256  0.47799  0.74516  Biso   1.000  Hf
  Hf13     1.0000 0.37080  0.97027  0.75960  Biso   1.000  Hf
  Hf14     1.0000 0.86035  0.48037  0.75598  Biso   1.000  Hf
  Hf15     1.0000 0.85565  0.97639  0.75819  Biso   1.000  Hf
  Hf16     1.0000 0.03504  0.20096  0.38231  Biso   1.000  Hf
  Hf17     1.0000 0.03490  0.68446  0.39199  Biso   1.000  Hf
  Hf18     1.0000 0.52816  0.17958  0.39558  Biso   1.000  Hf
  Hf19     1.0000 0.53284  0.67875  0.39771  Biso   1.000  Hf
  Hf20     1.0000 0.02803  0.06718  0.82527  Biso   1.000  Hf
  Hf21     1.0000 0.02885  0.56307  0.89487  Biso   1.000  Hf
  Hf22     1.0000 0.53607  0.06100  0.89170  Biso   1.000  Hf
  Hf23     1.0000 0.52936  0.56093  0.89371  Biso   1.000  Hf
  Hf24     1.0000 0.46469  0.43231  0.38486  Biso   1.000  Hf
  Hf25     1.0000 0.45784  0.93587  0.38671  Biso   1.000  Hf
  Hf26     1.0000 0.96119  0.43801  0.39898  Biso   1.000  Hf
  Hf27     1.0000 0.93546  0.92580  0.40654  Biso   1.000  Hf
  Hf28     1.0000 0.46442  0.31425  0.88287  Biso   1.000  Hf
  Hf29     1.0000 0.46930  0.81216  0.90303  Biso   1.000  Hf
  Hf30     1.0000 0.95797  0.31609  0.89888  Biso   1.000  Hf
  Hf31     1.0000 0.96759  0.81733  0.91464  Biso   1.000  Hf
  Hf32     1.0000 0.26433  0.60616  0.49681  Biso   1.000  Hf
  Hf33     1.0000 0.76437  0.11605  0.50499  Biso   1.000  Hf
  Hf34     1.0000 0.76738  0.61457  0.50167  Biso   1.000  Hf
  Hf35     1.0000 0.27329  0.12952  0.96089  Biso   1.000  Hf
  Hf36     1.0000 0.26601  0.62238  0.99801  Biso   1.000  Hf
  Hf37     1.0000 0.77169  0.13317  0.00801  Biso   1.000  Hf
  Hf38     1.0000 0.77003  0.63058  0.00037  Biso   1.000  Hf
  Hf39     1.0000 0.22520  0.37973  0.99203  Biso   1.000  Hf
  Hf40     1.0000 0.23851  0.86387  0.98864  Biso   1.000  Hf
  Hf41     1.0000 0.73011  0.38322  0.00172  Biso   1.000  Hf
  Hf42     1.0000 0.73116  0.87908  0.01070  Biso   1.000  Hf
  Hf43     1.0000 0.23583  0.35334  0.49186  Biso   1.000  Hf
  Hf44     1.0000 0.24056  0.85140  0.51241  Biso   1.000  Hf
  Hf45     1.0000 0.72636  0.36544  0.50301  Biso   1.000  Hf
  Hf46     1.0000 0.71338  0.86328  0.50987  Biso   1.000  Hf
