data_image0
_cell_length_a       5.0113
_cell_length_b       10.4332
_cell_length_c       10.1153
_cell_angle_alpha    90
_cell_angle_beta     90
_cell_angle_gamma    90

_symmetry_space_group_name_H-M    "P 1"
_symmetry_int_tables_number       1

loop_
  _symmetry_equiv_pos_as_xyz
  'x, y, z'

loop_
  _atom_site_label
  _atom_site_occupancy
  _atom_site_fract_x
  _atom_site_fract_y
  _atom_site_fract_z
  _atom_site_thermal_displace_type
  _atom_site_B_iso_or_equiv
  _atom_site_type_symbol
  La1      1.0000 0.25647  0.00431  0.12046  Biso   1.000  La
  Hf1      1.0000 0.24756  0.00995  0.62100  Biso   1.000  Hf
  Hf2      1.0000 0.25459  0.51200  0.12631  Biso   1.000  Hf
  Hf3      1.0000 0.24877  0.50696  0.62630  Biso   1.000  Hf
  Hf4      1.0000 0.25489  0.22900  0.37412  Biso   1.000  Hf
  Hf5      1.0000 0.24789  0.22519  0.87003  Biso   1.000  Hf
  Hf6      1.0000 0.24954  0.72504  0.38430  Biso   1.000  Hf
  Hf7      1.0000 0.28336  0.71488  0.87085  Biso   1.000  Hf
  Hf8      1.0000 0.72019  0.26600  0.12956  Biso   1.000  Hf
  Hf9      1.0000 0.71684  0.26052  0.62132  Biso   1.000  Hf
  Hf10     1.0000 0.71282  0.75346  0.14134  Biso   1.000  Hf
  Hf11     1.0000 0.72102  0.75959  0.62421  Biso   1.000  Hf
  Hf12     1.0000 0.71612  0.47715  0.37763  Biso   1.000  Hf
  Hf13     1.0000 0.71678  0.46781  0.87995  Biso   1.000  Hf
  Hf14     1.0000 0.71017  0.97813  0.37655  Biso   1.000  Hf
  Hf15     1.0000 0.70085  0.98179  0.86240  Biso   1.000  Hf
  Hf16     1.0000 0.05625  0.19290  0.19933  Biso   1.000  Hf
  Hf17     1.0000 0.05708  0.17994  0.68502  Biso   1.000  Hf
  Hf18     1.0000 0.06089  0.67944  0.20081  Biso   1.000  Hf
  Hf19     1.0000 0.05949  0.67627  0.69636  Biso   1.000  Hf
  Hf20     1.0000 0.05926  0.05866  0.43940  Biso   1.000  Hf
  Hf21     1.0000 0.05484  0.05359  0.91260  Biso   1.000  Hf
  Hf22     1.0000 0.05144  0.55848  0.45100  Biso   1.000  Hf
  Hf23     1.0000 0.04172  0.56913  0.94696  Biso   1.000  Hf
  Hf24     1.0000 0.91139  0.43637  0.19559  Biso   1.000  Hf
  Hf25     1.0000 0.91644  0.42537  0.70007  Biso   1.000  Hf
  Hf26     1.0000 0.86940  0.92551  0.19735  Biso   1.000  Hf
  Hf27     1.0000 0.90329  0.92716  0.68853  Biso   1.000  Hf
  Hf28     1.0000 0.91280  0.31223  0.44574  Biso   1.000  Hf
  Hf29     1.0000 0.91764  0.30910  0.94874  Biso   1.000  Hf
  Hf30     1.0000 0.91204  0.80957  0.44797  Biso   1.000  Hf
  Hf31     1.0000 0.54895  0.12495  0.25761  Biso   1.000  Hf
  Hf32     1.0000 0.52074  0.11064  0.74283  Biso   1.000  Hf
  Hf33     1.0000 0.51920  0.60830  0.25420  Biso   1.000  Hf
  Hf34     1.0000 0.52981  0.60666  0.75193  Biso   1.000  Hf
  Hf35     1.0000 0.52107  0.12634  0.50077  Biso   1.000  Hf
  Hf36     1.0000 0.53306  0.12623  0.98852  Biso   1.000  Hf
  Hf37     1.0000 0.52435  0.62465  0.50345  Biso   1.000  Hf
  Hf38     1.0000 0.54615  0.62403  0.00383  Biso   1.000  Hf
  Hf39     1.0000 0.44390  0.37718  0.49995  Biso   1.000  Hf
  Hf40     1.0000 0.43296  0.37020  0.99867  Biso   1.000  Hf
  Hf41     1.0000 0.44225  0.87577  0.50202  Biso   1.000  Hf
  Hf42     1.0000 0.50436  0.84897  0.98635  Biso   1.000  Hf
  Hf43     1.0000 0.44269  0.36659  0.25023  Biso   1.000  Hf
  Hf44     1.0000 0.44691  0.35910  0.74917  Biso   1.000  Hf
  Hf45     1.0000 0.44590  0.84779  0.26182  Biso   1.000  Hf
  Hf46     1.0000 0.43701  0.85940  0.74554  Biso   1.000  Hf
