data_image0
_cell_length_a       10.1907
_cell_length_b       10.3941
_cell_length_c       5.20604
_cell_angle_alpha    90
_cell_angle_beta     80
_cell_angle_gamma    90

_symmetry_space_group_name_H-M    "P 1"
_symmetry_int_tables_number       1

loop_
  _symmetry_equiv_pos_as_xyz
  'x, y, z'

loop_
  _atom_site_label
  _atom_site_occupancy
  _atom_site_fract_x
  _atom_site_fract_y
  _atom_site_fract_z
  _atom_site_thermal_displace_type
  _atom_site_B_iso_or_equiv
  _atom_site_type_symbol
  La1      1.0000 0.13141  0.01630  0.27756  Biso   1.000  La
  Hf1      1.0000 0.13078  0.52192  0.29073  Biso   1.000  Hf
  Hf2      1.0000 0.64064  0.02177  0.29392  Biso   1.000  Hf
  Hf3      1.0000 0.63520  0.52189  0.29363  Biso   1.000  Hf
  Hf4      1.0000 0.12149  0.24040  0.78794  Biso   1.000  Hf
  Hf5      1.0000 0.12834  0.73008  0.78799  Biso   1.000  Hf
  Hf6      1.0000 0.62882  0.23188  0.79708  Biso   1.000  Hf
  Hf7      1.0000 0.62888  0.73003  0.79194  Biso   1.000  Hf
  Hf8      1.0000 0.36224  0.27804  0.22219  Biso   1.000  Hf
  Hf9      1.0000 0.35790  0.76568  0.19762  Biso   1.000  Hf
  Hf10     1.0000 0.85643  0.27560  0.21015  Biso   1.000  Hf
  Hf11     1.0000 0.85312  0.77033  0.20805  Biso   1.000  Hf
  Hf12     1.0000 0.35210  0.48200  0.71292  Biso   1.000  Hf
  Hf13     1.0000 0.35835  0.97184  0.68384  Biso   1.000  Hf
  Hf14     1.0000 0.84950  0.48479  0.70807  Biso   1.000  Hf
  Hf15     1.0000 0.84392  0.98242  0.72120  Biso   1.000  Hf
  Hf16     1.0000 0.03935  0.20146  0.16751  Biso   1.000  Hf
  Hf17     1.0000 0.03542  0.68103  0.17167  Biso   1.000  Hf
  Hf18     1.0000 0.53133  0.16922  0.16567  Biso   1.000  Hf
  Hf19     1.0000 0.53215  0.66802  0.16459  Biso   1.000  Hf
  Hf20     1.0000 0.02404  0.08061  0.71002  Biso   1.000  Hf
  Hf21     1.0000 0.02786  0.57869  0.66736  Biso   1.000  Hf
  Hf22     1.0000 0.53274  0.08042  0.66428  Biso   1.000  Hf
  Hf23     1.0000 0.52870  0.57882  0.66690  Biso   1.000  Hf
  Hf24     1.0000 0.45991  0.42161  0.34498  Biso   1.000  Hf
  Hf25     1.0000 0.45761  0.92088  0.32268  Biso   1.000  Hf
  Hf26     1.0000 0.95028  0.43422  0.32646  Biso   1.000  Hf
  Hf27     1.0000 0.92535  0.92844  0.34536  Biso   1.000  Hf
  Hf28     1.0000 0.45260  0.33042  0.84506  Biso   1.000  Hf
  Hf29     1.0000 0.45853  0.82820  0.83216  Biso   1.000  Hf
  Hf30     1.0000 0.94648  0.33244  0.82303  Biso   1.000  Hf
  Hf31     1.0000 0.95232  0.83119  0.83521  Biso   1.000  Hf
  Hf32     1.0000 0.27969  0.13871  0.51077  Biso   1.000  Hf
  Hf33     1.0000 0.26951  0.62493  0.47792  Biso   1.000  Hf
  Hf34     1.0000 0.77123  0.13462  0.48898  Biso   1.000  Hf
  Hf35     1.0000 0.76747  0.63204  0.48256  Biso   1.000  Hf
  Hf36     1.0000 0.26286  0.62157  0.98147  Biso   1.000  Hf
  Hf37     1.0000 0.76426  0.12675  0.99174  Biso   1.000  Hf
  Hf38     1.0000 0.76535  0.62402  0.98477  Biso   1.000  Hf
  Hf39     1.0000 0.22443  0.37736  0.01819  Biso   1.000  Hf
  Hf40     1.0000 0.22699  0.87645  0.98546  Biso   1.000  Hf
  Hf41     1.0000 0.71834  0.38044  0.01932  Biso   1.000  Hf
  Hf42     1.0000 0.71815  0.87821  0.01946  Biso   1.000  Hf
  Hf43     1.0000 0.21532  0.37743  0.51789  Biso   1.000  Hf
  Hf44     1.0000 0.22566  0.85812  0.50894  Biso   1.000  Hf
  Hf45     1.0000 0.71551  0.37340  0.52143  Biso   1.000  Hf
  Hf46     1.0000 0.70263  0.87081  0.52540  Biso   1.000  Hf
