data_image0
_cell_length_a       5.07659
_cell_length_b       10.3215
_cell_length_c       10.4597
_cell_angle_alpha    90
_cell_angle_beta     80
_cell_angle_gamma    90

_symmetry_space_group_name_H-M    "P 1"
_symmetry_int_tables_number       1

loop_
  _symmetry_equiv_pos_as_xyz
  'x, y, z'

loop_
  _atom_site_label
  _atom_site_occupancy
  _atom_site_fract_x
  _atom_site_fract_y
  _atom_site_fract_z
  _atom_site_thermal_displace_type
  _atom_site_B_iso_or_equiv
  _atom_site_type_symbol
  La1      1.0000 0.23401  0.99956  0.13325  Biso   1.000  La
  Hf1      1.0000 0.25403  0.01957  0.64953  Biso   1.000  Hf
  Hf2      1.0000 0.25537  0.51398  0.14747  Biso   1.000  Hf
  Hf3      1.0000 0.24481  0.51901  0.64633  Biso   1.000  Hf
  Hf4      1.0000 0.24966  0.22236  0.39550  Biso   1.000  Hf
  Hf5      1.0000 0.23987  0.22931  0.89648  Biso   1.000  Hf
  Hf6      1.0000 0.24713  0.72263  0.39636  Biso   1.000  Hf
  Hf7      1.0000 0.24331  0.72684  0.89754  Biso   1.000  Hf
  Hf8      1.0000 0.70263  0.26717  0.10325  Biso   1.000  Hf
  Hf9      1.0000 0.69529  0.26883  0.60540  Biso   1.000  Hf
  Hf10     1.0000 0.70794  0.75613  0.10535  Biso   1.000  Hf
  Hf11     1.0000 0.68884  0.76763  0.60398  Biso   1.000  Hf
  Hf12     1.0000 0.69406  0.47303  0.35532  Biso   1.000  Hf
  Hf13     1.0000 0.68590  0.47401  0.85473  Biso   1.000  Hf
  Hf14     1.0000 0.67324  0.98013  0.36471  Biso   1.000  Hf
  Hf15     1.0000 0.68908  0.97559  0.85663  Biso   1.000  Hf
  Hf16     1.0000 0.06042  0.18432  0.07535  Biso   1.000  Hf
  Hf17     1.0000 0.04194  0.16543  0.58325  Biso   1.000  Hf
  Hf18     1.0000 0.07586  0.67693  0.08723  Biso   1.000  Hf
  Hf19     1.0000 0.03730  0.66509  0.57922  Biso   1.000  Hf
  Hf20     1.0000 0.03919  0.07410  0.34010  Biso   1.000  Hf
  Hf21     1.0000 0.04576  0.08031  0.83003  Biso   1.000  Hf
  Hf22     1.0000 0.04375  0.57542  0.33224  Biso   1.000  Hf
  Hf23     1.0000 0.02584  0.58509  0.83163  Biso   1.000  Hf
  Hf24     1.0000 0.89980  0.42143  0.16880  Biso   1.000  Hf
  Hf25     1.0000 0.89635  0.41794  0.67034  Biso   1.000  Hf
  Hf26     1.0000 0.89847  0.90803  0.67879  Biso   1.000  Hf
  Hf27     1.0000 0.90063  0.32563  0.42002  Biso   1.000  Hf
  Hf28     1.0000 0.88706  0.32978  0.91809  Biso   1.000  Hf
  Hf29     1.0000 0.90083  0.82945  0.41815  Biso   1.000  Hf
  Hf30     1.0000 0.93432  0.85478  0.95344  Biso   1.000  Hf
  Hf31     1.0000 0.54667  0.12733  0.24579  Biso   1.000  Hf
  Hf32     1.0000 0.52837  0.12622  0.74054  Biso   1.000  Hf
  Hf33     1.0000 0.52661  0.61844  0.24148  Biso   1.000  Hf
  Hf34     1.0000 0.51588  0.62749  0.74103  Biso   1.000  Hf
  Hf35     1.0000 0.52016  0.11915  0.49574  Biso   1.000  Hf
  Hf36     1.0000 0.52127  0.11864  0.98370  Biso   1.000  Hf
  Hf37     1.0000 0.52101  0.61774  0.49096  Biso   1.000  Hf
  Hf38     1.0000 0.51047  0.61231  0.99341  Biso   1.000  Hf
  Hf39     1.0000 0.43896  0.38099  0.00757  Biso   1.000  Hf
  Hf40     1.0000 0.41772  0.37631  0.51050  Biso   1.000  Hf
  Hf41     1.0000 0.45599  0.85667  0.99718  Biso   1.000  Hf
  Hf42     1.0000 0.41062  0.87550  0.51276  Biso   1.000  Hf
  Hf43     1.0000 0.41861  0.36611  0.25956  Biso   1.000  Hf
  Hf44     1.0000 0.41211  0.37008  0.75961  Biso   1.000  Hf
  Hf45     1.0000 0.46460  0.85517  0.25882  Biso   1.000  Hf
  Hf46     1.0000 0.41114  0.86888  0.76003  Biso   1.000  Hf
