data_image0
_cell_length_a       5.06162
_cell_length_b       10.3748
_cell_length_c       10.378
_cell_angle_alpha    90
_cell_angle_beta     80
_cell_angle_gamma    90

_symmetry_space_group_name_H-M    "P 1"
_symmetry_int_tables_number       1

loop_
  _symmetry_equiv_pos_as_xyz
  'x, y, z'

loop_
  _atom_site_label
  _atom_site_occupancy
  _atom_site_fract_x
  _atom_site_fract_y
  _atom_site_fract_z
  _atom_site_thermal_displace_type
  _atom_site_B_iso_or_equiv
  _atom_site_type_symbol
  La1      1.0000 0.26344  0.00253  0.13488  Biso   1.000  La
  Hf1      1.0000 0.25041  0.01952  0.64696  Biso   1.000  Hf
  Hf2      1.0000 0.26721  0.51653  0.14727  Biso   1.000  Hf
  Hf3      1.0000 0.24415  0.51411  0.64604  Biso   1.000  Hf
  Hf4      1.0000 0.25318  0.22335  0.39462  Biso   1.000  Hf
  Hf5      1.0000 0.23253  0.22907  0.89825  Biso   1.000  Hf
  Hf6      1.0000 0.24736  0.72070  0.40106  Biso   1.000  Hf
  Hf7      1.0000 0.22526  0.72005  0.89471  Biso   1.000  Hf
  Hf8      1.0000 0.71682  0.26838  0.10333  Biso   1.000  Hf
  Hf9      1.0000 0.69372  0.26699  0.60425  Biso   1.000  Hf
  Hf10     1.0000 0.72149  0.75875  0.11054  Biso   1.000  Hf
  Hf11     1.0000 0.69021  0.76684  0.60765  Biso   1.000  Hf
  Hf12     1.0000 0.69895  0.47401  0.35537  Biso   1.000  Hf
  Hf13     1.0000 0.67643  0.47345  0.85612  Biso   1.000  Hf
  Hf14     1.0000 0.69106  0.97624  0.35804  Biso   1.000  Hf
  Hf15     1.0000 0.69812  0.97980  0.85210  Biso   1.000  Hf
  Hf16     1.0000 0.08043  0.19213  0.08055  Biso   1.000  Hf
  Hf17     1.0000 0.04715  0.17132  0.58904  Biso   1.000  Hf
  Hf18     1.0000 0.09624  0.68974  0.09185  Biso   1.000  Hf
  Hf19     1.0000 0.04154  0.66947  0.59129  Biso   1.000  Hf
  Hf20     1.0000 0.04555  0.06968  0.34611  Biso   1.000  Hf
  Hf21     1.0000 0.05255  0.06933  0.83862  Biso   1.000  Hf
  Hf22     1.0000 0.05428  0.57079  0.33567  Biso   1.000  Hf
  Hf23     1.0000 0.03195  0.56989  0.83999  Biso   1.000  Hf
  Hf24     1.0000 0.90644  0.42922  0.16265  Biso   1.000  Hf
  Hf25     1.0000 0.88577  0.42187  0.66697  Biso   1.000  Hf
  Hf26     1.0000 0.83550  0.93329  0.16144  Biso   1.000  Hf
  Hf27     1.0000 0.89188  0.92000  0.66798  Biso   1.000  Hf
  Hf28     1.0000 0.89846  0.32181  0.41606  Biso   1.000  Hf
  Hf29     1.0000 0.87531  0.32201  0.91257  Biso   1.000  Hf
  Hf30     1.0000 0.89434  0.82012  0.41817  Biso   1.000  Hf
  Hf31     1.0000 0.87108  0.82347  0.92623  Biso   1.000  Hf
  Hf32     1.0000 0.54585  0.13576  0.24838  Biso   1.000  Hf
  Hf33     1.0000 0.52255  0.12661  0.74024  Biso   1.000  Hf
  Hf34     1.0000 0.53837  0.61944  0.24307  Biso   1.000  Hf
  Hf35     1.0000 0.50976  0.62521  0.74296  Biso   1.000  Hf
  Hf36     1.0000 0.52123  0.11679  0.49447  Biso   1.000  Hf
  Hf37     1.0000 0.52197  0.11781  0.98398  Biso   1.000  Hf
  Hf38     1.0000 0.52384  0.61470  0.49453  Biso   1.000  Hf
  Hf39     1.0000 0.49851  0.61737  0.99335  Biso   1.000  Hf
  Hf40     1.0000 0.45143  0.38394  0.00551  Biso   1.000  Hf
  Hf41     1.0000 0.41709  0.37522  0.50904  Biso   1.000  Hf
  Hf42     1.0000 0.41661  0.87542  0.51711  Biso   1.000  Hf
  Hf43     1.0000 0.42542  0.36962  0.25767  Biso   1.000  Hf
  Hf44     1.0000 0.40730  0.36733  0.75913  Biso   1.000  Hf
  Hf45     1.0000 0.42737  0.84961  0.26874  Biso   1.000  Hf
  Hf46     1.0000 0.40959  0.86632  0.77287  Biso   1.000  Hf
