data_image0
_cell_length_a       10.1173
_cell_length_b       10.3616
_cell_length_c       5.21501
_cell_angle_alpha    90
_cell_angle_beta     80
_cell_angle_gamma    90

_symmetry_space_group_name_H-M    "P 1"
_symmetry_int_tables_number       1

loop_
  _symmetry_equiv_pos_as_xyz
  'x, y, z'

loop_
  _atom_site_label
  _atom_site_occupancy
  _atom_site_fract_x
  _atom_site_fract_y
  _atom_site_fract_z
  _atom_site_thermal_displace_type
  _atom_site_B_iso_or_equiv
  _atom_site_type_symbol
  La1      1.0000 0.11499  0.00598  0.27291  Biso   1.000  La
  Hf1      1.0000 0.13256  0.52178  0.28927  Biso   1.000  Hf
  Hf2      1.0000 0.63527  0.02357  0.29876  Biso   1.000  Hf
  Hf3      1.0000 0.62777  0.51612  0.29381  Biso   1.000  Hf
  Hf4      1.0000 0.12725  0.22951  0.78760  Biso   1.000  Hf
  Hf5      1.0000 0.12992  0.72727  0.79029  Biso   1.000  Hf
  Hf6      1.0000 0.62626  0.23086  0.79781  Biso   1.000  Hf
  Hf7      1.0000 0.62587  0.72627  0.79036  Biso   1.000  Hf
  Hf8      1.0000 0.35147  0.26557  0.20673  Biso   1.000  Hf
  Hf9      1.0000 0.36005  0.76845  0.20360  Biso   1.000  Hf
  Hf10     1.0000 0.85710  0.27592  0.20973  Biso   1.000  Hf
  Hf11     1.0000 0.84794  0.76121  0.20808  Biso   1.000  Hf
  Hf12     1.0000 0.34865  0.47536  0.70805  Biso   1.000  Hf
  Hf13     1.0000 0.34959  0.97858  0.70272  Biso   1.000  Hf
  Hf14     1.0000 0.85108  0.47854  0.70806  Biso   1.000  Hf
  Hf15     1.0000 0.83926  0.98315  0.74442  Biso   1.000  Hf
  Hf16     1.0000 0.03577  0.19665  0.16938  Biso   1.000  Hf
  Hf17     1.0000 0.03536  0.68689  0.18345  Biso   1.000  Hf
  Hf18     1.0000 0.53193  0.16979  0.16533  Biso   1.000  Hf
  Hf19     1.0000 0.53428  0.66698  0.15632  Biso   1.000  Hf
  Hf20     1.0000 0.02051  0.07433  0.70500  Biso   1.000  Hf
  Hf21     1.0000 0.02645  0.57766  0.67198  Biso   1.000  Hf
  Hf22     1.0000 0.53415  0.07664  0.66596  Biso   1.000  Hf
  Hf23     1.0000 0.52364  0.57789  0.66265  Biso   1.000  Hf
  Hf24     1.0000 0.45473  0.41624  0.33899  Biso   1.000  Hf
  Hf25     1.0000 0.45938  0.91806  0.33802  Biso   1.000  Hf
  Hf26     1.0000 0.95022  0.43503  0.32655  Biso   1.000  Hf
  Hf27     1.0000 0.45192  0.32811  0.83951  Biso   1.000  Hf
  Hf28     1.0000 0.46029  0.83165  0.83710  Biso   1.000  Hf
  Hf29     1.0000 0.94664  0.32674  0.82612  Biso   1.000  Hf
  Hf30     1.0000 0.95370  0.83642  0.85698  Biso   1.000  Hf
  Hf31     1.0000 0.27057  0.13001  0.48468  Biso   1.000  Hf
  Hf32     1.0000 0.26950  0.62467  0.47775  Biso   1.000  Hf
  Hf33     1.0000 0.77562  0.12905  0.48937  Biso   1.000  Hf
  Hf34     1.0000 0.76331  0.62649  0.48337  Biso   1.000  Hf
  Hf35     1.0000 0.26867  0.12288  0.96673  Biso   1.000  Hf
  Hf36     1.0000 0.26039  0.61685  0.98183  Biso   1.000  Hf
  Hf37     1.0000 0.76020  0.12367  0.99833  Biso   1.000  Hf
  Hf38     1.0000 0.76545  0.62077  0.98351  Biso   1.000  Hf
  Hf39     1.0000 0.22036  0.38097  0.01215  Biso   1.000  Hf
  Hf40     1.0000 0.22546  0.86691  0.99391  Biso   1.000  Hf
  Hf41     1.0000 0.71898  0.38234  0.01631  Biso   1.000  Hf
  Hf42     1.0000 0.71612  0.87797  0.02823  Biso   1.000  Hf
  Hf43     1.0000 0.21101  0.37113  0.51279  Biso   1.000  Hf
  Hf44     1.0000 0.22223  0.85938  0.51561  Biso   1.000  Hf
  Hf45     1.0000 0.71398  0.36933  0.51979  Biso   1.000  Hf
  Hf46     1.0000 0.72878  0.86824  0.51949  Biso   1.000  Hf
