data_image0
_cell_length_a       5.10427
_cell_length_b       10.348
_cell_length_c       10.4845
_cell_angle_alpha    90
_cell_angle_beta     80
_cell_angle_gamma    90

_symmetry_space_group_name_H-M    "P 1"
_symmetry_int_tables_number       1

loop_
  _symmetry_equiv_pos_as_xyz
  'x, y, z'

loop_
  _atom_site_label
  _atom_site_occupancy
  _atom_site_fract_x
  _atom_site_fract_y
  _atom_site_fract_z
  _atom_site_thermal_displace_type
  _atom_site_B_iso_or_equiv
  _atom_site_type_symbol
  La1      1.0000 0.25731  0.00823  0.13777  Biso   1.000  La
  Hf1      1.0000 0.26689  0.01750  0.64994  Biso   1.000  Hf
  Hf2      1.0000 0.27978  0.51832  0.14431  Biso   1.000  Hf
  Hf3      1.0000 0.27044  0.51832  0.64841  Biso   1.000  Hf
  Hf4      1.0000 0.28502  0.23626  0.40242  Biso   1.000  Hf
  Hf5      1.0000 0.26431  0.22862  0.89612  Biso   1.000  Hf
  Hf6      1.0000 0.26428  0.71900  0.40083  Biso   1.000  Hf
  Hf7      1.0000 0.27731  0.72378  0.89526  Biso   1.000  Hf
  Hf8      1.0000 0.71927  0.27100  0.10240  Biso   1.000  Hf
  Hf9      1.0000 0.71910  0.26505  0.60536  Biso   1.000  Hf
  Hf10     1.0000 0.73239  0.76318  0.10500  Biso   1.000  Hf
  Hf11     1.0000 0.71777  0.76954  0.60581  Biso   1.000  Hf
  Hf12     1.0000 0.72242  0.47608  0.35160  Biso   1.000  Hf
  Hf13     1.0000 0.71484  0.47394  0.85330  Biso   1.000  Hf
  Hf14     1.0000 0.67543  0.96964  0.36150  Biso   1.000  Hf
  Hf15     1.0000 0.72857  0.97366  0.85534  Biso   1.000  Hf
  Hf16     1.0000 0.07213  0.18886  0.07761  Biso   1.000  Hf
  Hf17     1.0000 0.06485  0.16366  0.57764  Biso   1.000  Hf
  Hf18     1.0000 0.09077  0.67412  0.08257  Biso   1.000  Hf
  Hf19     1.0000 0.05825  0.66283  0.58304  Biso   1.000  Hf
  Hf20     1.0000 0.06443  0.07796  0.83187  Biso   1.000  Hf
  Hf21     1.0000 0.06687  0.57536  0.33099  Biso   1.000  Hf
  Hf22     1.0000 0.06208  0.57750  0.83007  Biso   1.000  Hf
  Hf23     1.0000 0.92275  0.42403  0.16671  Biso   1.000  Hf
  Hf24     1.0000 0.92660  0.41324  0.66721  Biso   1.000  Hf
  Hf25     1.0000 0.86180  0.92511  0.17836  Biso   1.000  Hf
  Hf26     1.0000 0.93056  0.91307  0.67424  Biso   1.000  Hf
  Hf27     1.0000 0.92129  0.31838  0.41322  Biso   1.000  Hf
  Hf28     1.0000 0.91375  0.32933  0.91729  Biso   1.000  Hf
  Hf29     1.0000 0.92155  0.83370  0.42343  Biso   1.000  Hf
  Hf30     1.0000 0.95025  0.83509  0.92899  Biso   1.000  Hf
  Hf31     1.0000 0.53666  0.13434  0.25602  Biso   1.000  Hf
  Hf32     1.0000 0.54367  0.12605  0.74002  Biso   1.000  Hf
  Hf33     1.0000 0.55190  0.62173  0.24090  Biso   1.000  Hf
  Hf34     1.0000 0.54526  0.62578  0.73998  Biso   1.000  Hf
  Hf35     1.0000 0.54499  0.11539  0.49658  Biso   1.000  Hf
  Hf36     1.0000 0.55125  0.12203  0.98290  Biso   1.000  Hf
  Hf37     1.0000 0.54410  0.61540  0.49184  Biso   1.000  Hf
  Hf38     1.0000 0.54298  0.61102  0.99117  Biso   1.000  Hf
  Hf39     1.0000 0.45327  0.38134  0.00701  Biso   1.000  Hf
  Hf40     1.0000 0.44777  0.37416  0.50944  Biso   1.000  Hf
  Hf41     1.0000 0.47593  0.85867  0.99666  Biso   1.000  Hf
  Hf42     1.0000 0.43198  0.87104  0.51580  Biso   1.000  Hf
  Hf43     1.0000 0.44292  0.37244  0.25959  Biso   1.000  Hf
  Hf44     1.0000 0.44184  0.36831  0.75813  Biso   1.000  Hf
  Hf45     1.0000 0.43305  0.85259  0.27089  Biso   1.000  Hf
  Hf46     1.0000 0.44937  0.86816  0.75907  Biso   1.000  Hf
