data_image0
_cell_length_a       10.0406
_cell_length_b       10.3008
_cell_length_c       5.21309
_cell_angle_alpha    90
_cell_angle_beta     90
_cell_angle_gamma    90

_symmetry_space_group_name_H-M    "P 1"
_symmetry_int_tables_number       1

loop_
  _symmetry_equiv_pos_as_xyz
  'x, y, z'

loop_
  _atom_site_label
  _atom_site_occupancy
  _atom_site_fract_x
  _atom_site_fract_y
  _atom_site_fract_z
  _atom_site_thermal_displace_type
  _atom_site_B_iso_or_equiv
  _atom_site_type_symbol
  La1      1.0000 0.11562  0.00031  0.29945  Biso   1.000  La
  Hf1      1.0000 0.13637  0.52309  0.32409  Biso   1.000  Hf
  Hf2      1.0000 0.12853  0.22973  0.82393  Biso   1.000  Hf
  Hf3      1.0000 0.10391  0.73925  0.81568  Biso   1.000  Hf
  Hf4      1.0000 0.35500  0.26865  0.33241  Biso   1.000  Hf
  Hf5      1.0000 0.36973  0.76437  0.30080  Biso   1.000  Hf
  Hf6      1.0000 0.34698  0.48144  0.83430  Biso   1.000  Hf
  Hf7      1.0000 0.36667  0.98771  0.82288  Biso   1.000  Hf
  Hf8      1.0000 0.63921  0.02307  0.16617  Biso   1.000  Hf
  Hf9      1.0000 0.64024  0.51572  0.15378  Biso   1.000  Hf
  Hf10     1.0000 0.63197  0.23147  0.65474  Biso   1.000  Hf
  Hf11     1.0000 0.62873  0.72934  0.66352  Biso   1.000  Hf
  Hf12     1.0000 0.86459  0.27280  0.15876  Biso   1.000  Hf
  Hf13     1.0000 0.85942  0.76319  0.19259  Biso   1.000  Hf
  Hf14     1.0000 0.85462  0.47806  0.65814  Biso   1.000  Hf
  Hf15     1.0000 0.85858  0.97691  0.69653  Biso   1.000  Hf
  Hf16     1.0000 0.04082  0.18975  0.17035  Biso   1.000  Hf
  Hf17     1.0000 0.03156  0.66295  0.13573  Biso   1.000  Hf
  Hf18     1.0000 0.02038  0.07936  0.68714  Biso   1.000  Hf
  Hf19     1.0000 0.02663  0.57837  0.65847  Biso   1.000  Hf
  Hf20     1.0000 0.46584  0.41720  0.15924  Biso   1.000  Hf
  Hf21     1.0000 0.47823  0.91912  0.16055  Biso   1.000  Hf
  Hf22     1.0000 0.45975  0.33440  0.66244  Biso   1.000  Hf
  Hf23     1.0000 0.45710  0.83417  0.64503  Biso   1.000  Hf
  Hf24     1.0000 0.27082  0.12559  0.57592  Biso   1.000  Hf
  Hf25     1.0000 0.25930  0.64545  0.56537  Biso   1.000  Hf
  Hf26     1.0000 0.28574  0.13146  0.06172  Biso   1.000  Hf
  Hf27     1.0000 0.27428  0.62121  0.07040  Biso   1.000  Hf
  Hf28     1.0000 0.21780  0.37910  0.57575  Biso   1.000  Hf
  Hf29     1.0000 0.22411  0.37806  0.07654  Biso   1.000  Hf
  Hf30     1.0000 0.25046  0.86246  0.01417  Biso   1.000  Hf
  Hf31     1.0000 0.53324  0.16944  0.32337  Biso   1.000  Hf
  Hf32     1.0000 0.53729  0.66572  0.31969  Biso   1.000  Hf
  Hf33     1.0000 0.53168  0.08094  0.82005  Biso   1.000  Hf
  Hf34     1.0000 0.52104  0.58560  0.82492  Biso   1.000  Hf
  Hf35     1.0000 0.95700  0.42849  0.31461  Biso   1.000  Hf
  Hf36     1.0000 0.98046  0.83370  0.51465  Biso   1.000  Hf
  Hf37     1.0000 0.95109  0.32822  0.81224  Biso   1.000  Hf
  Hf38     1.0000 0.96534  0.88435  0.98914  Biso   1.000  Hf
  Hf39     1.0000 0.76339  0.12382  0.92614  Biso   1.000  Hf
  Hf40     1.0000 0.76662  0.62429  0.92328  Biso   1.000  Hf
  Hf41     1.0000 0.77980  0.12290  0.42247  Biso   1.000  Hf
  Hf42     1.0000 0.76634  0.62319  0.42605  Biso   1.000  Hf
  Hf43     1.0000 0.71169  0.37541  0.90776  Biso   1.000  Hf
  Hf44     1.0000 0.71657  0.86726  0.92376  Biso   1.000  Hf
  Hf45     1.0000 0.72054  0.37351  0.40894  Biso   1.000  Hf
  Hf46     1.0000 0.73047  0.88017  0.42423  Biso   1.000  Hf
