data_image0
_cell_length_a       10.1289
_cell_length_b       5.15466
_cell_length_c       10.4252
_cell_angle_alpha    90
_cell_angle_beta     90
_cell_angle_gamma    90

_symmetry_space_group_name_H-M    "P 1"
_symmetry_int_tables_number       1

loop_
  _symmetry_equiv_pos_as_xyz
  'x, y, z'

loop_
  _atom_site_label
  _atom_site_occupancy
  _atom_site_fract_x
  _atom_site_fract_y
  _atom_site_fract_z
  _atom_site_thermal_displace_type
  _atom_site_B_iso_or_equiv
  _atom_site_type_symbol
  La1      1.0000 0.12904  0.01697  0.16189  Biso   1.000  La
  Hf1      1.0000 0.13189  0.03774  0.67138  Biso   1.000  Hf
  Hf2      1.0000 0.12652  0.44078  0.42733  Biso   1.000  Hf
  Hf3      1.0000 0.13280  0.46365  0.91625  Biso   1.000  Hf
  Hf4      1.0000 0.36946  0.52322  0.16184  Biso   1.000  Hf
  Hf5      1.0000 0.35590  0.54078  0.66767  Biso   1.000  Hf
  Hf6      1.0000 0.36352  0.97221  0.42365  Biso   1.000  Hf
  Hf7      1.0000 0.35931  0.95986  0.91695  Biso   1.000  Hf
  Hf8      1.0000 0.64290  0.03444  0.07961  Biso   1.000  Hf
  Hf9      1.0000 0.63372  0.04525  0.58271  Biso   1.000  Hf
  Hf10     1.0000 0.63242  0.46727  0.33158  Biso   1.000  Hf
  Hf11     1.0000 0.63186  0.45992  0.82913  Biso   1.000  Hf
  Hf12     1.0000 0.85972  0.53780  0.07942  Biso   1.000  Hf
  Hf13     1.0000 0.85527  0.54604  0.58084  Biso   1.000  Hf
  Hf14     1.0000 0.84985  0.96341  0.33317  Biso   1.000  Hf
  Hf15     1.0000 0.85610  0.95989  0.83065  Biso   1.000  Hf
  Hf16     1.0000 0.04307  0.40110  0.09285  Biso   1.000  Hf
  Hf17     1.0000 0.02952  0.34988  0.59633  Biso   1.000  Hf
  Hf18     1.0000 0.02176  0.14715  0.35495  Biso   1.000  Hf
  Hf19     1.0000 0.03163  0.14854  0.84397  Biso   1.000  Hf
  Hf20     1.0000 0.47322  0.82838  0.08153  Biso   1.000  Hf
  Hf21     1.0000 0.46218  0.83694  0.58543  Biso   1.000  Hf
  Hf22     1.0000 0.45311  0.67022  0.33259  Biso   1.000  Hf
  Hf23     1.0000 0.46070  0.66494  0.83033  Biso   1.000  Hf
  Hf24     1.0000 0.27144  0.27254  0.30083  Biso   1.000  Hf
  Hf25     1.0000 0.26882  0.24952  0.79030  Biso   1.000  Hf
  Hf26     1.0000 0.28615  0.24807  0.03436  Biso   1.000  Hf
  Hf27     1.0000 0.26765  0.24649  0.54776  Biso   1.000  Hf
  Hf28     1.0000 0.21825  0.74694  0.78675  Biso   1.000  Hf
  Hf29     1.0000 0.24505  0.72620  0.03105  Biso   1.000  Hf
  Hf30     1.0000 0.21995  0.75219  0.53318  Biso   1.000  Hf
  Hf31     1.0000 0.53475  0.32257  0.16675  Biso   1.000  Hf
  Hf32     1.0000 0.52788  0.33587  0.66438  Biso   1.000  Hf
  Hf33     1.0000 0.52927  0.17233  0.41829  Biso   1.000  Hf
  Hf34     1.0000 0.52968  0.16632  0.91368  Biso   1.000  Hf
  Hf35     1.0000 0.92436  0.87184  0.15452  Biso   1.000  Hf
  Hf36     1.0000 0.95722  0.84962  0.65995  Biso   1.000  Hf
  Hf37     1.0000 0.95795  0.65575  0.40940  Biso   1.000  Hf
  Hf38     1.0000 0.95581  0.65709  0.90694  Biso   1.000  Hf
  Hf39     1.0000 0.76920  0.24644  0.95676  Biso   1.000  Hf
  Hf40     1.0000 0.76664  0.25488  0.45950  Biso   1.000  Hf
  Hf41     1.0000 0.77140  0.26588  0.21106  Biso   1.000  Hf
  Hf42     1.0000 0.76999  0.25646  0.70735  Biso   1.000  Hf
  Hf43     1.0000 0.71576  0.74765  0.95488  Biso   1.000  Hf
  Hf44     1.0000 0.71770  0.75304  0.45900  Biso   1.000  Hf
  Hf45     1.0000 0.70530  0.75408  0.21206  Biso   1.000  Hf
  Hf46     1.0000 0.71918  0.75443  0.70652  Biso   1.000  Hf
