data_image0
_cell_length_a       10.1946
_cell_length_b       10.3577
_cell_length_c       5.22435
_cell_angle_alpha    90
_cell_angle_beta     80
_cell_angle_gamma    90

_symmetry_space_group_name_H-M    "P 1"
_symmetry_int_tables_number       1

loop_
  _symmetry_equiv_pos_as_xyz
  'x, y, z'

loop_
  _atom_site_label
  _atom_site_occupancy
  _atom_site_fract_x
  _atom_site_fract_y
  _atom_site_fract_z
  _atom_site_thermal_displace_type
  _atom_site_B_iso_or_equiv
  _atom_site_type_symbol
  La1      1.0000 0.12975  0.01254  0.28582  Biso   1.000  La
  Hf1      1.0000 0.13337  0.51758  0.29051  Biso   1.000  Hf
  Hf2      1.0000 0.64904  0.02471  0.29374  Biso   1.000  Hf
  Hf3      1.0000 0.63509  0.51944  0.29410  Biso   1.000  Hf
  Hf4      1.0000 0.12950  0.23188  0.79461  Biso   1.000  Hf
  Hf5      1.0000 0.13588  0.72578  0.78580  Biso   1.000  Hf
  Hf6      1.0000 0.63136  0.22903  0.79570  Biso   1.000  Hf
  Hf7      1.0000 0.63104  0.72933  0.79277  Biso   1.000  Hf
  Hf8      1.0000 0.35882  0.26758  0.20977  Biso   1.000  Hf
  Hf9      1.0000 0.35817  0.75761  0.19463  Biso   1.000  Hf
  Hf10     1.0000 0.86044  0.27637  0.20651  Biso   1.000  Hf
  Hf11     1.0000 0.85823  0.76593  0.20732  Biso   1.000  Hf
  Hf12     1.0000 0.35633  0.47396  0.70600  Biso   1.000  Hf
  Hf13     1.0000 0.35959  0.98547  0.72254  Biso   1.000  Hf
  Hf14     1.0000 0.85330  0.48072  0.70877  Biso   1.000  Hf
  Hf15     1.0000 0.85302  0.97758  0.72315  Biso   1.000  Hf
  Hf16     1.0000 0.03834  0.19918  0.17199  Biso   1.000  Hf
  Hf17     1.0000 0.04119  0.67755  0.16506  Biso   1.000  Hf
  Hf18     1.0000 0.53125  0.15703  0.15216  Biso   1.000  Hf
  Hf19     1.0000 0.53561  0.67023  0.16558  Biso   1.000  Hf
  Hf20     1.0000 0.02450  0.07516  0.71497  Biso   1.000  Hf
  Hf21     1.0000 0.03052  0.57679  0.66591  Biso   1.000  Hf
  Hf22     1.0000 0.53380  0.08036  0.64524  Biso   1.000  Hf
  Hf23     1.0000 0.52669  0.58361  0.66169  Biso   1.000  Hf
  Hf24     1.0000 0.46310  0.41489  0.34284  Biso   1.000  Hf
  Hf25     1.0000 0.95215  0.43379  0.32850  Biso   1.000  Hf
  Hf26     1.0000 0.92856  0.92437  0.34725  Biso   1.000  Hf
  Hf27     1.0000 0.46001  0.33149  0.84529  Biso   1.000  Hf
  Hf28     1.0000 0.46808  0.84427  0.86656  Biso   1.000  Hf
  Hf29     1.0000 0.95181  0.33019  0.82714  Biso   1.000  Hf
  Hf30     1.0000 0.96004  0.82626  0.83304  Biso   1.000  Hf
  Hf31     1.0000 0.28063  0.13439  0.49536  Biso   1.000  Hf
  Hf32     1.0000 0.26975  0.62122  0.47762  Biso   1.000  Hf
  Hf33     1.0000 0.77314  0.13308  0.48805  Biso   1.000  Hf
  Hf34     1.0000 0.76968  0.62987  0.48146  Biso   1.000  Hf
  Hf35     1.0000 0.27512  0.12824  0.97217  Biso   1.000  Hf
  Hf36     1.0000 0.26937  0.61655  0.98019  Biso   1.000  Hf
  Hf37     1.0000 0.76733  0.12358  0.98974  Biso   1.000  Hf
  Hf38     1.0000 0.76558  0.62047  0.98214  Biso   1.000  Hf
  Hf39     1.0000 0.22607  0.38052  0.01388  Biso   1.000  Hf
  Hf40     1.0000 0.22762  0.86458  0.99442  Biso   1.000  Hf
  Hf41     1.0000 0.72073  0.38022  0.01764  Biso   1.000  Hf
  Hf42     1.0000 0.72638  0.87878  0.02086  Biso   1.000  Hf
  Hf43     1.0000 0.21712  0.37096  0.51494  Biso   1.000  Hf
  Hf44     1.0000 0.25607  0.86003  0.51038  Biso   1.000  Hf
  Hf45     1.0000 0.71762  0.37203  0.52093  Biso   1.000  Hf
  Hf46     1.0000 0.70479  0.86913  0.52656  Biso   1.000  Hf
