data_image0
_cell_length_a       10.0992
_cell_length_b       5.15175
_cell_length_c       10.3689
_cell_angle_alpha    90
_cell_angle_beta     90
_cell_angle_gamma    90

_symmetry_space_group_name_H-M    "P 1"
_symmetry_int_tables_number       1

loop_
  _symmetry_equiv_pos_as_xyz
  'x, y, z'

loop_
  _atom_site_label
  _atom_site_occupancy
  _atom_site_fract_x
  _atom_site_fract_y
  _atom_site_fract_z
  _atom_site_thermal_displace_type
  _atom_site_B_iso_or_equiv
  _atom_site_type_symbol
  La1      1.0000 0.12900  0.01059  0.15212  Biso   1.000  La
  Hf1      1.0000 0.13280  0.03293  0.66803  Biso   1.000  Hf
  Hf2      1.0000 0.13240  0.44481  0.41759  Biso   1.000  Hf
  Hf3      1.0000 0.12577  0.45352  0.91253  Biso   1.000  Hf
  Hf4      1.0000 0.36429  0.51682  0.17465  Biso   1.000  Hf
  Hf5      1.0000 0.35400  0.53263  0.66865  Biso   1.000  Hf
  Hf6      1.0000 0.35318  0.94855  0.41887  Biso   1.000  Hf
  Hf7      1.0000 0.35873  0.96076  0.91206  Biso   1.000  Hf
  Hf8      1.0000 0.63988  0.03220  0.08295  Biso   1.000  Hf
  Hf9      1.0000 0.63193  0.03451  0.58047  Biso   1.000  Hf
  Hf10     1.0000 0.63390  0.45431  0.33447  Biso   1.000  Hf
  Hf11     1.0000 0.63152  0.45334  0.82818  Biso   1.000  Hf
  Hf12     1.0000 0.85724  0.53959  0.08116  Biso   1.000  Hf
  Hf13     1.0000 0.85712  0.53756  0.58017  Biso   1.000  Hf
  Hf14     1.0000 0.84874  0.95948  0.33292  Biso   1.000  Hf
  Hf15     1.0000 0.84832  0.95233  0.83145  Biso   1.000  Hf
  Hf16     1.0000 0.04944  0.43312  0.09625  Biso   1.000  Hf
  Hf17     1.0000 0.03134  0.34279  0.59474  Biso   1.000  Hf
  Hf18     1.0000 0.02461  0.15039  0.34664  Biso   1.000  Hf
  Hf19     1.0000 0.03155  0.13731  0.84933  Biso   1.000  Hf
  Hf20     1.0000 0.44948  0.83794  0.08503  Biso   1.000  Hf
  Hf21     1.0000 0.45558  0.83419  0.58893  Biso   1.000  Hf
  Hf22     1.0000 0.46230  0.65260  0.34044  Biso   1.000  Hf
  Hf23     1.0000 0.45723  0.65273  0.83444  Biso   1.000  Hf
  Hf24     1.0000 0.27786  0.23622  0.29655  Biso   1.000  Hf
  Hf25     1.0000 0.26715  0.24236  0.78722  Biso   1.000  Hf
  Hf26     1.0000 0.28337  0.27400  0.02865  Biso   1.000  Hf
  Hf27     1.0000 0.26892  0.24298  0.54178  Biso   1.000  Hf
  Hf28     1.0000 0.22460  0.71956  0.29426  Biso   1.000  Hf
  Hf29     1.0000 0.21456  0.74430  0.79904  Biso   1.000  Hf
  Hf30     1.0000 0.21457  0.74505  0.54531  Biso   1.000  Hf
  Hf31     1.0000 0.53364  0.32487  0.16479  Biso   1.000  Hf
  Hf32     1.0000 0.52759  0.33318  0.66178  Biso   1.000  Hf
  Hf33     1.0000 0.53097  0.14947  0.41363  Biso   1.000  Hf
  Hf34     1.0000 0.53215  0.15128  0.91118  Biso   1.000  Hf
  Hf35     1.0000 0.91706  0.88390  0.14810  Biso   1.000  Hf
  Hf36     1.0000 0.95379  0.84456  0.66177  Biso   1.000  Hf
  Hf37     1.0000 0.95660  0.65171  0.40798  Biso   1.000  Hf
  Hf38     1.0000 0.94888  0.64450  0.90511  Biso   1.000  Hf
  Hf39     1.0000 0.76698  0.23710  0.95879  Biso   1.000  Hf
  Hf40     1.0000 0.76937  0.24431  0.46002  Biso   1.000  Hf
  Hf41     1.0000 0.77086  0.26080  0.21016  Biso   1.000  Hf
  Hf42     1.0000 0.76975  0.24754  0.70800  Biso   1.000  Hf
  Hf43     1.0000 0.70979  0.73801  0.95673  Biso   1.000  Hf
  Hf44     1.0000 0.71761  0.74330  0.46012  Biso   1.000  Hf
  Hf45     1.0000 0.70219  0.74839  0.21127  Biso   1.000  Hf
  Hf46     1.0000 0.71578  0.74547  0.70706  Biso   1.000  Hf
