data_image0
_cell_length_a       5.02114
_cell_length_b       10.4514
_cell_length_c       10.0493
_cell_angle_alpha    90
_cell_angle_beta     90
_cell_angle_gamma    90

_symmetry_space_group_name_H-M    "P 1"
_symmetry_int_tables_number       1

loop_
  _symmetry_equiv_pos_as_xyz
  'x, y, z'

loop_
  _atom_site_label
  _atom_site_occupancy
  _atom_site_fract_x
  _atom_site_fract_y
  _atom_site_fract_z
  _atom_site_thermal_displace_type
  _atom_site_B_iso_or_equiv
  _atom_site_type_symbol
  La1      1.0000 0.24744  0.00138  0.12571  Biso   1.000  La
  Hf1      1.0000 0.25018  0.00502  0.62496  Biso   1.000  Hf
  Hf2      1.0000 0.26388  0.51474  0.12178  Biso   1.000  Hf
  Hf3      1.0000 0.25423  0.50446  0.62677  Biso   1.000  Hf
  Hf4      1.0000 0.24854  0.22890  0.38018  Biso   1.000  Hf
  Hf5      1.0000 0.26076  0.22054  0.87018  Biso   1.000  Hf
  Hf6      1.0000 0.26074  0.71947  0.38145  Biso   1.000  Hf
  Hf7      1.0000 0.26029  0.72026  0.87603  Biso   1.000  Hf
  Hf8      1.0000 0.74629  0.27416  0.11641  Biso   1.000  Hf
  Hf9      1.0000 0.72120  0.25590  0.62307  Biso   1.000  Hf
  Hf10     1.0000 0.73035  0.76179  0.12837  Biso   1.000  Hf
  Hf11     1.0000 0.72078  0.75341  0.62702  Biso   1.000  Hf
  Hf12     1.0000 0.72120  0.47385  0.37629  Biso   1.000  Hf
  Hf13     1.0000 0.71885  0.47172  0.87411  Biso   1.000  Hf
  Hf14     1.0000 0.72805  0.96745  0.38491  Biso   1.000  Hf
  Hf15     1.0000 0.72368  0.96877  0.87252  Biso   1.000  Hf
  Hf16     1.0000 0.04316  0.18866  0.20929  Biso   1.000  Hf
  Hf17     1.0000 0.06938  0.17755  0.68174  Biso   1.000  Hf
  Hf18     1.0000 0.06848  0.68388  0.19761  Biso   1.000  Hf
  Hf19     1.0000 0.06033  0.67187  0.69562  Biso   1.000  Hf
  Hf20     1.0000 0.06770  0.05273  0.44106  Biso   1.000  Hf
  Hf21     1.0000 0.05258  0.06108  0.91721  Biso   1.000  Hf
  Hf22     1.0000 0.05968  0.55384  0.44779  Biso   1.000  Hf
  Hf23     1.0000 0.05191  0.55724  0.94567  Biso   1.000  Hf
  Hf24     1.0000 0.93085  0.43736  0.19653  Biso   1.000  Hf
  Hf25     1.0000 0.91823  0.42193  0.69591  Biso   1.000  Hf
  Hf26     1.0000 0.84590  0.94412  0.19456  Biso   1.000  Hf
  Hf27     1.0000 0.92005  0.92072  0.69169  Biso   1.000  Hf
  Hf28     1.0000 0.91487  0.30902  0.44781  Biso   1.000  Hf
  Hf29     1.0000 0.92748  0.30924  0.94439  Biso   1.000  Hf
  Hf30     1.0000 0.92109  0.80476  0.44734  Biso   1.000  Hf
  Hf31     1.0000 0.94963  0.81325  0.95914  Biso   1.000  Hf
  Hf32     1.0000 0.53226  0.10574  0.74394  Biso   1.000  Hf
  Hf33     1.0000 0.52767  0.60253  0.25037  Biso   1.000  Hf
  Hf34     1.0000 0.53008  0.60524  0.74942  Biso   1.000  Hf
  Hf35     1.0000 0.53575  0.12185  0.48893  Biso   1.000  Hf
  Hf36     1.0000 0.53435  0.12103  0.99719  Biso   1.000  Hf
  Hf37     1.0000 0.53366  0.61983  0.50124  Biso   1.000  Hf
  Hf38     1.0000 0.54644  0.63167  0.00007  Biso   1.000  Hf
  Hf39     1.0000 0.44793  0.37333  0.49992  Biso   1.000  Hf
  Hf40     1.0000 0.44660  0.37070  0.99636  Biso   1.000  Hf
  Hf41     1.0000 0.44886  0.86908  0.50487  Biso   1.000  Hf
  Hf42     1.0000 0.47686  0.85312  0.98964  Biso   1.000  Hf
  Hf43     1.0000 0.46647  0.34925  0.24922  Biso   1.000  Hf
  Hf44     1.0000 0.45156  0.35641  0.74774  Biso   1.000  Hf
  Hf45     1.0000 0.45957  0.84308  0.26278  Biso   1.000  Hf
  Hf46     1.0000 0.45111  0.85544  0.74831  Biso   1.000  Hf
