data_image0
_cell_length_a       10.0262
_cell_length_b       5.1937
_cell_length_c       10.119
_cell_angle_alpha    90
_cell_angle_beta     90
_cell_angle_gamma    90

_symmetry_space_group_name_H-M    "P 1"
_symmetry_int_tables_number       1

loop_
  _symmetry_equiv_pos_as_xyz
  'x, y, z'

loop_
  _atom_site_label
  _atom_site_occupancy
  _atom_site_fract_x
  _atom_site_fract_y
  _atom_site_fract_z
  _atom_site_thermal_displace_type
  _atom_site_B_iso_or_equiv
  _atom_site_type_symbol
  La1      1.0000 0.11832  0.01042  0.11890  Biso   1.000  La
  Hf1      1.0000 0.13203  0.03397  0.62615  Biso   1.000  Hf
  Hf2      1.0000 0.62970  0.03363  0.12557  Biso   1.000  Hf
  Hf3      1.0000 0.63202  0.02921  0.62356  Biso   1.000  Hf
  Hf4      1.0000 0.14081  0.47497  0.38649  Biso   1.000  Hf
  Hf5      1.0000 0.13642  0.46970  0.87120  Biso   1.000  Hf
  Hf6      1.0000 0.63162  0.46429  0.37742  Biso   1.000  Hf
  Hf7      1.0000 0.63196  0.45970  0.87228  Biso   1.000  Hf
  Hf8      1.0000 0.36727  0.52405  0.12357  Biso   1.000  Hf
  Hf9      1.0000 0.36748  0.53396  0.62558  Biso   1.000  Hf
  Hf10     1.0000 0.84818  0.53971  0.12405  Biso   1.000  Hf
  Hf11     1.0000 0.86615  0.52806  0.62508  Biso   1.000  Hf
  Hf12     1.0000 0.36538  0.96899  0.37109  Biso   1.000  Hf
  Hf13     1.0000 0.36887  0.96430  0.87386  Biso   1.000  Hf
  Hf14     1.0000 0.86560  0.95824  0.38182  Biso   1.000  Hf
  Hf15     1.0000 0.86312  0.96226  0.87071  Biso   1.000  Hf
  Hf16     1.0000 0.03922  0.37371  0.68555  Biso   1.000  Hf
  Hf17     1.0000 0.53812  0.36601  0.19563  Biso   1.000  Hf
  Hf18     1.0000 0.53474  0.36235  0.69412  Biso   1.000  Hf
  Hf19     1.0000 0.03624  0.13326  0.43729  Biso   1.000  Hf
  Hf20     1.0000 0.02470  0.15865  0.92005  Biso   1.000  Hf
  Hf21     1.0000 0.53447  0.12894  0.44354  Biso   1.000  Hf
  Hf22     1.0000 0.53564  0.12849  0.94454  Biso   1.000  Hf
  Hf23     1.0000 0.46071  0.87151  0.19015  Biso   1.000  Hf
  Hf24     1.0000 0.46698  0.86360  0.69531  Biso   1.000  Hf
  Hf25     1.0000 0.95610  0.80238  0.22135  Biso   1.000  Hf
  Hf26     1.0000 0.96387  0.86512  0.69516  Biso   1.000  Hf
  Hf27     1.0000 0.46581  0.63269  0.44674  Biso   1.000  Hf
  Hf28     1.0000 0.47196  0.63220  0.94482  Biso   1.000  Hf
  Hf29     1.0000 0.96733  0.63203  0.45491  Biso   1.000  Hf
  Hf30     1.0000 0.97316  0.65671  0.96105  Biso   1.000  Hf
  Hf31     1.0000 0.26834  0.24496  0.25397  Biso   1.000  Hf
  Hf32     1.0000 0.27034  0.23461  0.74687  Biso   1.000  Hf
  Hf33     1.0000 0.77623  0.23578  0.24779  Biso   1.000  Hf
  Hf34     1.0000 0.76898  0.22948  0.74584  Biso   1.000  Hf
  Hf35     1.0000 0.27066  0.26539  0.50225  Biso   1.000  Hf
  Hf36     1.0000 0.27405  0.26422  0.99075  Biso   1.000  Hf
  Hf37     1.0000 0.76771  0.26329  0.49917  Biso   1.000  Hf
  Hf38     1.0000 0.76780  0.25600  0.99626  Biso   1.000  Hf
  Hf39     1.0000 0.23238  0.77113  0.50008  Biso   1.000  Hf
  Hf40     1.0000 0.24210  0.74444  0.99017  Biso   1.000  Hf
  Hf41     1.0000 0.72967  0.75920  0.50125  Biso   1.000  Hf
  Hf42     1.0000 0.73106  0.76256  0.00040  Biso   1.000  Hf
  Hf43     1.0000 0.24014  0.71263  0.25596  Biso   1.000  Hf
  Hf44     1.0000 0.23032  0.73892  0.74516  Biso   1.000  Hf
  Hf45     1.0000 0.71607  0.74216  0.25114  Biso   1.000  Hf
  Hf46     1.0000 0.73014  0.72961  0.74989  Biso   1.000  Hf
