data_image0
_cell_length_a       10.0412
_cell_length_b       10.3931
_cell_length_c       5.04089
_cell_angle_alpha    90
_cell_angle_beta     90
_cell_angle_gamma    90

_symmetry_space_group_name_H-M    "P 1"
_symmetry_int_tables_number       1

loop_
  _symmetry_equiv_pos_as_xyz
  'x, y, z'

loop_
  _atom_site_label
  _atom_site_occupancy
  _atom_site_fract_x
  _atom_site_fract_y
  _atom_site_fract_z
  _atom_site_thermal_displace_type
  _atom_site_B_iso_or_equiv
  _atom_site_type_symbol
  La1      1.0000 0.12168  0.01004  0.24587  Biso   1.000  La
  Hf1      1.0000 0.13665  0.51810  0.25972  Biso   1.000  Hf
  Hf2      1.0000 0.63343  0.01560  0.24895  Biso   1.000  Hf
  Hf3      1.0000 0.63287  0.51753  0.25497  Biso   1.000  Hf
  Hf4      1.0000 0.14266  0.24110  0.76865  Biso   1.000  Hf
  Hf5      1.0000 0.14041  0.73320  0.75757  Biso   1.000  Hf
  Hf6      1.0000 0.63239  0.23293  0.74697  Biso   1.000  Hf
  Hf7      1.0000 0.63693  0.73275  0.75619  Biso   1.000  Hf
  Hf8      1.0000 0.36670  0.26635  0.25789  Biso   1.000  Hf
  Hf9      1.0000 0.37271  0.76573  0.24839  Biso   1.000  Hf
  Hf10     1.0000 0.85503  0.27303  0.24350  Biso   1.000  Hf
  Hf11     1.0000 0.86433  0.76249  0.25539  Biso   1.000  Hf
  Hf12     1.0000 0.36950  0.48445  0.75548  Biso   1.000  Hf
  Hf13     1.0000 0.37264  0.98488  0.74480  Biso   1.000  Hf
  Hf14     1.0000 0.87090  0.48370  0.75298  Biso   1.000  Hf
  Hf15     1.0000 0.86462  0.98164  0.74925  Biso   1.000  Hf
  Hf16     1.0000 0.03619  0.68173  0.40108  Biso   1.000  Hf
  Hf17     1.0000 0.53990  0.18488  0.38495  Biso   1.000  Hf
  Hf18     1.0000 0.53921  0.68235  0.39570  Biso   1.000  Hf
  Hf19     1.0000 0.03363  0.07786  0.79277  Biso   1.000  Hf
  Hf20     1.0000 0.03669  0.56845  0.89982  Biso   1.000  Hf
  Hf21     1.0000 0.54022  0.06500  0.88148  Biso   1.000  Hf
  Hf22     1.0000 0.53675  0.56709  0.89778  Biso   1.000  Hf
  Hf23     1.0000 0.46657  0.43322  0.39546  Biso   1.000  Hf
  Hf24     1.0000 0.46632  0.93778  0.38038  Biso   1.000  Hf
  Hf25     1.0000 0.97085  0.42272  0.40062  Biso   1.000  Hf
  Hf26     1.0000 0.94356  0.92475  0.40313  Biso   1.000  Hf
  Hf27     1.0000 0.46859  0.31803  0.89160  Biso   1.000  Hf
  Hf28     1.0000 0.47516  0.81885  0.89444  Biso   1.000  Hf
  Hf29     1.0000 0.96689  0.31956  0.90060  Biso   1.000  Hf
  Hf30     1.0000 0.97747  0.82618  0.91486  Biso   1.000  Hf
  Hf31     1.0000 0.27479  0.13056  0.50828  Biso   1.000  Hf
  Hf32     1.0000 0.27321  0.61548  0.50254  Biso   1.000  Hf
  Hf33     1.0000 0.77424  0.12177  0.49182  Biso   1.000  Hf
  Hf34     1.0000 0.77375  0.61590  0.49814  Biso   1.000  Hf
  Hf35     1.0000 0.27969  0.13727  0.99236  Biso   1.000  Hf
  Hf36     1.0000 0.27296  0.63068  0.00443  Biso   1.000  Hf
  Hf37     1.0000 0.77082  0.13327  0.99533  Biso   1.000  Hf
  Hf38     1.0000 0.77279  0.63027  0.99664  Biso   1.000  Hf
  Hf39     1.0000 0.23551  0.38583  0.00947  Biso   1.000  Hf
  Hf40     1.0000 0.24520  0.87570  0.98523  Biso   1.000  Hf
  Hf41     1.0000 0.73183  0.38269  0.00017  Biso   1.000  Hf
  Hf42     1.0000 0.73460  0.87849  0.00597  Biso   1.000  Hf
  Hf43     1.0000 0.23022  0.37164  0.50591  Biso   1.000  Hf
  Hf44     1.0000 0.24428  0.85790  0.50709  Biso   1.000  Hf
  Hf45     1.0000 0.72894  0.37133  0.50199  Biso   1.000  Hf
  Hf46     1.0000 0.72098  0.86795  0.50626  Biso   1.000  Hf
