data_image0
_cell_length_a       10.0831
_cell_length_b       10.2849
_cell_length_c       5.25401
_cell_angle_alpha    90
_cell_angle_beta     90
_cell_angle_gamma    90

_symmetry_space_group_name_H-M    "P 1"
_symmetry_int_tables_number       1

loop_
  _symmetry_equiv_pos_as_xyz
  'x, y, z'

loop_
  _atom_site_label
  _atom_site_occupancy
  _atom_site_fract_x
  _atom_site_fract_y
  _atom_site_fract_z
  _atom_site_thermal_displace_type
  _atom_site_B_iso_or_equiv
  _atom_site_type_symbol
  La1      1.0000 0.11658  0.99965  0.29681  Biso   1.000  La
  Hf1      1.0000 0.13177  0.51849  0.33499  Biso   1.000  Hf
  Hf2      1.0000 0.12753  0.22784  0.82690  Biso   1.000  Hf
  Hf3      1.0000 0.12880  0.72646  0.84462  Biso   1.000  Hf
  Hf4      1.0000 0.35237  0.26547  0.33338  Biso   1.000  Hf
  Hf5      1.0000 0.35424  0.75682  0.35360  Biso   1.000  Hf
  Hf6      1.0000 0.35192  0.47055  0.83961  Biso   1.000  Hf
  Hf7      1.0000 0.35261  0.98519  0.80993  Biso   1.000  Hf
  Hf8      1.0000 0.64483  0.02562  0.16155  Biso   1.000  Hf
  Hf9      1.0000 0.63382  0.51855  0.15149  Biso   1.000  Hf
  Hf10     1.0000 0.63164  0.22622  0.65446  Biso   1.000  Hf
  Hf11     1.0000 0.63008  0.72683  0.65569  Biso   1.000  Hf
  Hf12     1.0000 0.86007  0.27726  0.15287  Biso   1.000  Hf
  Hf13     1.0000 0.85551  0.76695  0.17214  Biso   1.000  Hf
  Hf14     1.0000 0.85252  0.47990  0.65590  Biso   1.000  Hf
  Hf15     1.0000 0.85164  0.97499  0.67977  Biso   1.000  Hf
  Hf16     1.0000 0.03138  0.18698  0.15788  Biso   1.000  Hf
  Hf17     1.0000 0.02827  0.65993  0.15187  Biso   1.000  Hf
  Hf18     1.0000 0.01570  0.08760  0.67506  Biso   1.000  Hf
  Hf19     1.0000 0.02292  0.59258  0.65524  Biso   1.000  Hf
  Hf20     1.0000 0.46574  0.40995  0.15816  Biso   1.000  Hf
  Hf21     1.0000 0.46092  0.33137  0.65639  Biso   1.000  Hf
  Hf22     1.0000 0.46802  0.84334  0.64262  Biso   1.000  Hf
  Hf23     1.0000 0.27009  0.12398  0.57510  Biso   1.000  Hf
  Hf24     1.0000 0.27015  0.61618  0.58391  Biso   1.000  Hf
  Hf25     1.0000 0.28248  0.13232  0.05568  Biso   1.000  Hf
  Hf26     1.0000 0.26803  0.61985  0.08281  Biso   1.000  Hf
  Hf27     1.0000 0.21613  0.37139  0.58176  Biso   1.000  Hf
  Hf28     1.0000 0.22209  0.85979  0.59110  Biso   1.000  Hf
  Hf29     1.0000 0.22107  0.37692  0.08472  Biso   1.000  Hf
  Hf30     1.0000 0.26943  0.86423  0.06958  Biso   1.000  Hf
  Hf31     1.0000 0.52539  0.15352  0.33847  Biso   1.000  Hf
  Hf32     1.0000 0.52760  0.66337  0.32874  Biso   1.000  Hf
  Hf33     1.0000 0.52975  0.07860  0.83898  Biso   1.000  Hf
  Hf34     1.0000 0.52005  0.58509  0.83193  Biso   1.000  Hf
  Hf35     1.0000 0.95720  0.42293  0.33173  Biso   1.000  Hf
  Hf36     1.0000 0.95344  0.85904  0.44848  Biso   1.000  Hf
  Hf37     1.0000 0.95659  0.34008  0.82683  Biso   1.000  Hf
  Hf38     1.0000 0.97613  0.86612  0.93661  Biso   1.000  Hf
  Hf39     1.0000 0.76469  0.12410  0.92163  Biso   1.000  Hf
  Hf40     1.0000 0.76539  0.62079  0.91113  Biso   1.000  Hf
  Hf41     1.0000 0.77628  0.12450  0.41771  Biso   1.000  Hf
  Hf42     1.0000 0.76480  0.62445  0.41213  Biso   1.000  Hf
  Hf43     1.0000 0.71257  0.37288  0.90447  Biso   1.000  Hf
  Hf44     1.0000 0.71800  0.86774  0.91605  Biso   1.000  Hf
  Hf45     1.0000 0.71693  0.37397  0.40848  Biso   1.000  Hf
  Hf46     1.0000 0.70968  0.87892  0.40821  Biso   1.000  Hf
