data_image0
_cell_length_a       10.0684
_cell_length_b       5.20663
_cell_length_c       10.111
_cell_angle_alpha    90
_cell_angle_beta     90
_cell_angle_gamma    90

_symmetry_space_group_name_H-M    "P 1"
_symmetry_int_tables_number       1

loop_
  _symmetry_equiv_pos_as_xyz
  'x, y, z'

loop_
  _atom_site_label
  _atom_site_occupancy
  _atom_site_fract_x
  _atom_site_fract_y
  _atom_site_fract_z
  _atom_site_thermal_displace_type
  _atom_site_B_iso_or_equiv
  _atom_site_type_symbol
  La1      1.0000 0.11939  0.01147  0.12234  Biso   1.000  La
  Hf1      1.0000 0.12125  0.01675  0.61893  Biso   1.000  Hf
  Hf2      1.0000 0.62845  0.02611  0.12497  Biso   1.000  Hf
  Hf3      1.0000 0.62062  0.02307  0.62546  Biso   1.000  Hf
  Hf4      1.0000 0.12510  0.46320  0.37686  Biso   1.000  Hf
  Hf5      1.0000 0.13534  0.43535  0.86160  Biso   1.000  Hf
  Hf6      1.0000 0.62063  0.45665  0.38130  Biso   1.000  Hf
  Hf7      1.0000 0.61721  0.45670  0.87545  Biso   1.000  Hf
  Hf8      1.0000 0.36313  0.51982  0.12661  Biso   1.000  Hf
  Hf9      1.0000 0.35647  0.52160  0.61912  Biso   1.000  Hf
  Hf10     1.0000 0.84459  0.52754  0.14415  Biso   1.000  Hf
  Hf11     1.0000 0.85623  0.52954  0.62647  Biso   1.000  Hf
  Hf12     1.0000 0.35323  0.96276  0.37158  Biso   1.000  Hf
  Hf13     1.0000 0.35177  0.93970  0.87421  Biso   1.000  Hf
  Hf14     1.0000 0.84927  0.96102  0.38139  Biso   1.000  Hf
  Hf15     1.0000 0.83712  0.97351  0.87179  Biso   1.000  Hf
  Hf16     1.0000 0.02091  0.40442  0.20291  Biso   1.000  Hf
  Hf17     1.0000 0.02739  0.35899  0.68175  Biso   1.000  Hf
  Hf18     1.0000 0.53095  0.35580  0.19492  Biso   1.000  Hf
  Hf19     1.0000 0.52205  0.35595  0.69527  Biso   1.000  Hf
  Hf20     1.0000 0.02645  0.12279  0.43917  Biso   1.000  Hf
  Hf21     1.0000 0.00282  0.16845  0.92647  Biso   1.000  Hf
  Hf22     1.0000 0.52472  0.12290  0.44862  Biso   1.000  Hf
  Hf23     1.0000 0.52495  0.11227  0.93966  Biso   1.000  Hf
  Hf24     1.0000 0.45456  0.86545  0.19036  Biso   1.000  Hf
  Hf25     1.0000 0.45262  0.85189  0.69613  Biso   1.000  Hf
  Hf26     1.0000 0.92236  0.87186  0.20100  Biso   1.000  Hf
  Hf27     1.0000 0.95122  0.85761  0.70331  Biso   1.000  Hf
  Hf28     1.0000 0.45393  0.62655  0.44616  Biso   1.000  Hf
  Hf29     1.0000 0.45578  0.62013  0.94974  Biso   1.000  Hf
  Hf30     1.0000 0.95380  0.63282  0.45043  Biso   1.000  Hf
  Hf31     1.0000 0.27126  0.24112  0.25432  Biso   1.000  Hf
  Hf32     1.0000 0.25810  0.21086  0.74425  Biso   1.000  Hf
  Hf33     1.0000 0.75613  0.23198  0.25690  Biso   1.000  Hf
  Hf34     1.0000 0.75613  0.23092  0.74917  Biso   1.000  Hf
  Hf35     1.0000 0.25847  0.25491  0.49951  Biso   1.000  Hf
  Hf36     1.0000 0.26369  0.23515  0.98865  Biso   1.000  Hf
  Hf37     1.0000 0.75869  0.25890  0.50359  Biso   1.000  Hf
  Hf38     1.0000 0.76824  0.27389  0.00274  Biso   1.000  Hf
  Hf39     1.0000 0.21931  0.76019  0.49644  Biso   1.000  Hf
  Hf40     1.0000 0.21634  0.71458  0.98601  Biso   1.000  Hf
  Hf41     1.0000 0.71698  0.75526  0.50447  Biso   1.000  Hf
  Hf42     1.0000 0.74193  0.76587  0.00116  Biso   1.000  Hf
  Hf43     1.0000 0.23413  0.71000  0.25540  Biso   1.000  Hf
  Hf44     1.0000 0.21946  0.71765  0.74046  Biso   1.000  Hf
  Hf45     1.0000 0.70289  0.73004  0.25671  Biso   1.000  Hf
  Hf46     1.0000 0.71515  0.72735  0.75153  Biso   1.000  Hf
