data_image0
_cell_length_a       10.1045
_cell_length_b       5.12379
_cell_length_c       10.5161
_cell_angle_alpha    90
_cell_angle_beta     90
_cell_angle_gamma    90

_symmetry_space_group_name_H-M    "P 1"
_symmetry_int_tables_number       1

loop_
  _symmetry_equiv_pos_as_xyz
  'x, y, z'

loop_
  _atom_site_label
  _atom_site_occupancy
  _atom_site_fract_x
  _atom_site_fract_y
  _atom_site_fract_z
  _atom_site_thermal_displace_type
  _atom_site_B_iso_or_equiv
  _atom_site_type_symbol
  La1      1.0000 0.11981  0.03619  0.15435  Biso   1.000  La
  Hf1      1.0000 0.12791  0.03996  0.66826  Biso   1.000  Hf
  Hf2      1.0000 0.13017  0.45930  0.41944  Biso   1.000  Hf
  Hf3      1.0000 0.13217  0.47225  0.90699  Biso   1.000  Hf
  Hf4      1.0000 0.35905  0.53944  0.17005  Biso   1.000  Hf
  Hf5      1.0000 0.35350  0.54273  0.66526  Biso   1.000  Hf
  Hf6      1.0000 0.35373  0.95991  0.41686  Biso   1.000  Hf
  Hf7      1.0000 0.35119  0.95895  0.91709  Biso   1.000  Hf
  Hf8      1.0000 0.63402  0.04367  0.07932  Biso   1.000  Hf
  Hf9      1.0000 0.62852  0.04022  0.57829  Biso   1.000  Hf
  Hf10     1.0000 0.63051  0.45771  0.32993  Biso   1.000  Hf
  Hf11     1.0000 0.62601  0.45457  0.82573  Biso   1.000  Hf
  Hf12     1.0000 0.84541  0.54450  0.08129  Biso   1.000  Hf
  Hf13     1.0000 0.85360  0.54157  0.58205  Biso   1.000  Hf
  Hf14     1.0000 0.85252  0.95459  0.33575  Biso   1.000  Hf
  Hf15     1.0000 0.85209  0.95424  0.83300  Biso   1.000  Hf
  Hf16     1.0000 0.02225  0.32355  0.58518  Biso   1.000  Hf
  Hf17     1.0000 0.00994  0.20009  0.33348  Biso   1.000  Hf
  Hf18     1.0000 0.02271  0.16653  0.84314  Biso   1.000  Hf
  Hf19     1.0000 0.46813  0.83295  0.08098  Biso   1.000  Hf
  Hf20     1.0000 0.46016  0.82860  0.57905  Biso   1.000  Hf
  Hf21     1.0000 0.46465  0.67563  0.33007  Biso   1.000  Hf
  Hf22     1.0000 0.45748  0.67075  0.82736  Biso   1.000  Hf
  Hf23     1.0000 0.27328  0.25213  0.29514  Biso   1.000  Hf
  Hf24     1.0000 0.26406  0.24745  0.78449  Biso   1.000  Hf
  Hf25     1.0000 0.27802  0.26548  0.02879  Biso   1.000  Hf
  Hf26     1.0000 0.26514  0.25422  0.54036  Biso   1.000  Hf
  Hf27     1.0000 0.22310  0.73657  0.29591  Biso   1.000  Hf
  Hf28     1.0000 0.21695  0.75000  0.78859  Biso   1.000  Hf
  Hf29     1.0000 0.23927  0.73669  0.03175  Biso   1.000  Hf
  Hf30     1.0000 0.21647  0.75685  0.54356  Biso   1.000  Hf
  Hf31     1.0000 0.52962  0.32988  0.16620  Biso   1.000  Hf
  Hf32     1.0000 0.52390  0.32880  0.66443  Biso   1.000  Hf
  Hf33     1.0000 0.52528  0.16988  0.41609  Biso   1.000  Hf
  Hf34     1.0000 0.51980  0.17041  0.91432  Biso   1.000  Hf
  Hf35     1.0000 0.95291  0.76722  0.19278  Biso   1.000  Hf
  Hf36     1.0000 0.96218  0.81400  0.68224  Biso   1.000  Hf
  Hf37     1.0000 0.96483  0.69713  0.43563  Biso   1.000  Hf
  Hf38     1.0000 0.95732  0.67440  0.93747  Biso   1.000  Hf
  Hf39     1.0000 0.76170  0.24247  0.95713  Biso   1.000  Hf
  Hf40     1.0000 0.76521  0.25043  0.45976  Biso   1.000  Hf
  Hf41     1.0000 0.77117  0.25066  0.20612  Biso   1.000  Hf
  Hf42     1.0000 0.76655  0.24636  0.70865  Biso   1.000  Hf
  Hf43     1.0000 0.70791  0.74654  0.95421  Biso   1.000  Hf
  Hf44     1.0000 0.71708  0.74546  0.45697  Biso   1.000  Hf
  Hf45     1.0000 0.71073  0.75654  0.20590  Biso   1.000  Hf
  Hf46     1.0000 0.71675  0.74960  0.70610  Biso   1.000  Hf
