data_image0
_cell_length_a       5.06085
_cell_length_b       10.306
_cell_length_c       10.4071
_cell_angle_alpha    90
_cell_angle_beta     80
_cell_angle_gamma    90

_symmetry_space_group_name_H-M    "P 1"
_symmetry_int_tables_number       1

loop_
  _symmetry_equiv_pos_as_xyz
  'x, y, z'

loop_
  _atom_site_label
  _atom_site_occupancy
  _atom_site_fract_x
  _atom_site_fract_y
  _atom_site_fract_z
  _atom_site_thermal_displace_type
  _atom_site_B_iso_or_equiv
  _atom_site_type_symbol
  La1      1.0000 0.22904  0.99934  0.13215  Biso   1.000  La
  Hf1      1.0000 0.22263  0.02544  0.65043  Biso   1.000  Hf
  Hf2      1.0000 0.25803  0.51032  0.14355  Biso   1.000  Hf
  Hf3      1.0000 0.21516  0.53103  0.63946  Biso   1.000  Hf
  Hf4      1.0000 0.23375  0.22730  0.39726  Biso   1.000  Hf
  Hf5      1.0000 0.20751  0.23731  0.89597  Biso   1.000  Hf
  Hf6      1.0000 0.21753  0.73670  0.38083  Biso   1.000  Hf
  Hf7      1.0000 0.21524  0.73231  0.90197  Biso   1.000  Hf
  Hf8      1.0000 0.70812  0.26770  0.10253  Biso   1.000  Hf
  Hf9      1.0000 0.66825  0.27546  0.60705  Biso   1.000  Hf
  Hf10     1.0000 0.73289  0.75737  0.11386  Biso   1.000  Hf
  Hf11     1.0000 0.65868  0.77238  0.61329  Biso   1.000  Hf
  Hf12     1.0000 0.68024  0.47893  0.35583  Biso   1.000  Hf
  Hf13     1.0000 0.65714  0.48385  0.85418  Biso   1.000  Hf
  Hf14     1.0000 0.68145  0.98262  0.36416  Biso   1.000  Hf
  Hf15     1.0000 0.67063  0.98209  0.86196  Biso   1.000  Hf
  Hf16     1.0000 0.06962  0.18927  0.07466  Biso   1.000  Hf
  Hf17     1.0000 0.02036  0.17540  0.58771  Biso   1.000  Hf
  Hf18     1.0000 0.07320  0.65513  0.06652  Biso   1.000  Hf
  Hf19     1.0000 0.01498  0.68135  0.56434  Biso   1.000  Hf
  Hf20     1.0000 0.03636  0.07274  0.34737  Biso   1.000  Hf
  Hf21     1.0000 0.01177  0.08645  0.83214  Biso   1.000  Hf
  Hf22     1.0000 0.03390  0.57885  0.32866  Biso   1.000  Hf
  Hf23     1.0000 0.98935  0.60299  0.81905  Biso   1.000  Hf
  Hf24     1.0000 0.89376  0.42222  0.17032  Biso   1.000  Hf
  Hf25     1.0000 0.86705  0.42975  0.66570  Biso   1.000  Hf
  Hf26     1.0000 0.94769  0.83562  0.25886  Biso   1.000  Hf
  Hf27     1.0000 0.88189  0.91163  0.68256  Biso   1.000  Hf
  Hf28     1.0000 0.88201  0.32858  0.41996  Biso   1.000  Hf
  Hf29     1.0000 0.85610  0.33939  0.91737  Biso   1.000  Hf
  Hf30     1.0000 0.91536  0.86890  0.96954  Biso   1.000  Hf
  Hf31     1.0000 0.55514  0.12518  0.24456  Biso   1.000  Hf
  Hf32     1.0000 0.49663  0.13279  0.74254  Biso   1.000  Hf
  Hf33     1.0000 0.51228  0.62291  0.23887  Biso   1.000  Hf
  Hf34     1.0000 0.48095  0.63326  0.74123  Biso   1.000  Hf
  Hf35     1.0000 0.50022  0.12384  0.49776  Biso   1.000  Hf
  Hf36     1.0000 0.48575  0.12531  0.98603  Biso   1.000  Hf
  Hf37     1.0000 0.50093  0.62780  0.48665  Biso   1.000  Hf
  Hf38     1.0000 0.48155  0.61935  0.99391  Biso   1.000  Hf
  Hf39     1.0000 0.44967  0.38081  0.00444  Biso   1.000  Hf
  Hf40     1.0000 0.39703  0.38380  0.50963  Biso   1.000  Hf
  Hf41     1.0000 0.43474  0.86197  0.00353  Biso   1.000  Hf
  Hf42     1.0000 0.41674  0.88181  0.50916  Biso   1.000  Hf
  Hf43     1.0000 0.41417  0.36515  0.25930  Biso   1.000  Hf
  Hf44     1.0000 0.38224  0.37902  0.75895  Biso   1.000  Hf
  Hf45     1.0000 0.46936  0.86551  0.25820  Biso   1.000  Hf
  Hf46     1.0000 0.38857  0.87703  0.76493  Biso   1.000  Hf
