data_image0
_cell_length_a       10.0617
_cell_length_b       5.199
_cell_length_c       10.0813
_cell_angle_alpha    90
_cell_angle_beta     90
_cell_angle_gamma    90

_symmetry_space_group_name_H-M    "P 1"
_symmetry_int_tables_number       1

loop_
  _symmetry_equiv_pos_as_xyz
  'x, y, z'

loop_
  _atom_site_label
  _atom_site_occupancy
  _atom_site_fract_x
  _atom_site_fract_y
  _atom_site_fract_z
  _atom_site_thermal_displace_type
  _atom_site_B_iso_or_equiv
  _atom_site_type_symbol
  La1      1.0000 0.11934  0.01211  0.11927  Biso   1.000  La
  Hf1      1.0000 0.12546  0.02625  0.62359  Biso   1.000  Hf
  Hf2      1.0000 0.63103  0.02471  0.12743  Biso   1.000  Hf
  Hf3      1.0000 0.62378  0.02479  0.62209  Biso   1.000  Hf
  Hf4      1.0000 0.13137  0.46545  0.37580  Biso   1.000  Hf
  Hf5      1.0000 0.13323  0.48074  0.86578  Biso   1.000  Hf
  Hf6      1.0000 0.62651  0.46098  0.37602  Biso   1.000  Hf
  Hf7      1.0000 0.62591  0.44847  0.87550  Biso   1.000  Hf
  Hf8      1.0000 0.36750  0.52361  0.12247  Biso   1.000  Hf
  Hf9      1.0000 0.36253  0.52310  0.61990  Biso   1.000  Hf
  Hf10     1.0000 0.85709  0.53004  0.13312  Biso   1.000  Hf
  Hf11     1.0000 0.86100  0.52165  0.62375  Biso   1.000  Hf
  Hf12     1.0000 0.36081  0.96365  0.37120  Biso   1.000  Hf
  Hf13     1.0000 0.36401  0.95907  0.87074  Biso   1.000  Hf
  Hf14     1.0000 0.85866  0.96224  0.38113  Biso   1.000  Hf
  Hf15     1.0000 0.84786  0.94301  0.87123  Biso   1.000  Hf
  Hf16     1.0000 0.02551  0.39343  0.20488  Biso   1.000  Hf
  Hf17     1.0000 0.02470  0.35299  0.70055  Biso   1.000  Hf
  Hf18     1.0000 0.53509  0.35953  0.19205  Biso   1.000  Hf
  Hf19     1.0000 0.52815  0.35709  0.69542  Biso   1.000  Hf
  Hf20     1.0000 0.02651  0.13222  0.44730  Biso   1.000  Hf
  Hf21     1.0000 0.52793  0.12613  0.44520  Biso   1.000  Hf
  Hf22     1.0000 0.52902  0.11923  0.94507  Biso   1.000  Hf
  Hf23     1.0000 0.46248  0.86407  0.19132  Biso   1.000  Hf
  Hf24     1.0000 0.46083  0.85668  0.69368  Biso   1.000  Hf
  Hf25     1.0000 0.93390  0.86635  0.20483  Biso   1.000  Hf
  Hf26     1.0000 0.96187  0.85129  0.70222  Biso   1.000  Hf
  Hf27     1.0000 0.46023  0.62755  0.44557  Biso   1.000  Hf
  Hf28     1.0000 0.46394  0.62193  0.94239  Biso   1.000  Hf
  Hf29     1.0000 0.96196  0.63391  0.45275  Biso   1.000  Hf
  Hf30     1.0000 0.97003  0.64616  0.95742  Biso   1.000  Hf
  Hf31     1.0000 0.27520  0.24162  0.25188  Biso   1.000  Hf
  Hf32     1.0000 0.26284  0.22662  0.74352  Biso   1.000  Hf
  Hf33     1.0000 0.76214  0.23373  0.25248  Biso   1.000  Hf
  Hf34     1.0000 0.76085  0.21610  0.74712  Biso   1.000  Hf
  Hf35     1.0000 0.26174  0.25883  0.49906  Biso   1.000  Hf
  Hf36     1.0000 0.25648  0.26135  0.98629  Biso   1.000  Hf
  Hf37     1.0000 0.76079  0.26180  0.50045  Biso   1.000  Hf
  Hf38     1.0000 0.76848  0.24113  0.99734  Biso   1.000  Hf
  Hf39     1.0000 0.22551  0.76420  0.49688  Biso   1.000  Hf
  Hf40     1.0000 0.23700  0.74469  0.98556  Biso   1.000  Hf
  Hf41     1.0000 0.72450  0.75738  0.50252  Biso   1.000  Hf
  Hf42     1.0000 0.72075  0.74243  0.99913  Biso   1.000  Hf
  Hf43     1.0000 0.23807  0.71416  0.25247  Biso   1.000  Hf
  Hf44     1.0000 0.22720  0.72754  0.74066  Biso   1.000  Hf
  Hf45     1.0000 0.71362  0.72998  0.25330  Biso   1.000  Hf
  Hf46     1.0000 0.72568  0.71723  0.75057  Biso   1.000  Hf
