data_image0
_cell_length_a       10.0768
_cell_length_b       5.20641
_cell_length_c       10.0555
_cell_angle_alpha    90
_cell_angle_beta     90
_cell_angle_gamma    90

_symmetry_space_group_name_H-M    "P 1"
_symmetry_int_tables_number       1

loop_
  _symmetry_equiv_pos_as_xyz
  'x, y, z'

loop_
  _atom_site_label
  _atom_site_occupancy
  _atom_site_fract_x
  _atom_site_fract_y
  _atom_site_fract_z
  _atom_site_thermal_displace_type
  _atom_site_B_iso_or_equiv
  _atom_site_type_symbol
  La1      1.0000 0.12030  0.01264  0.11928  Biso   1.000  La
  Hf1      1.0000 0.12957  0.03954  0.62653  Biso   1.000  Hf
  Hf2      1.0000 0.63387  0.03290  0.12756  Biso   1.000  Hf
  Hf3      1.0000 0.62990  0.04033  0.62465  Biso   1.000  Hf
  Hf4      1.0000 0.12599  0.47220  0.37742  Biso   1.000  Hf
  Hf5      1.0000 0.11262  0.49871  0.86169  Biso   1.000  Hf
  Hf6      1.0000 0.62402  0.46903  0.37843  Biso   1.000  Hf
  Hf7      1.0000 0.62645  0.47211  0.87497  Biso   1.000  Hf
  Hf8      1.0000 0.36932  0.53865  0.13121  Biso   1.000  Hf
  Hf9      1.0000 0.35912  0.53193  0.62256  Biso   1.000  Hf
  Hf10     1.0000 0.85266  0.53870  0.13369  Biso   1.000  Hf
  Hf11     1.0000 0.85781  0.54256  0.62269  Biso   1.000  Hf
  Hf12     1.0000 0.35519  0.97257  0.37424  Biso   1.000  Hf
  Hf13     1.0000 0.36476  0.95045  0.86700  Biso   1.000  Hf
  Hf14     1.0000 0.85397  0.97424  0.37958  Biso   1.000  Hf
  Hf15     1.0000 0.85055  0.97596  0.87522  Biso   1.000  Hf
  Hf16     1.0000 0.02436  0.40620  0.20356  Biso   1.000  Hf
  Hf17     1.0000 0.03224  0.38347  0.67763  Biso   1.000  Hf
  Hf18     1.0000 0.53481  0.36425  0.19503  Biso   1.000  Hf
  Hf19     1.0000 0.52828  0.36857  0.69462  Biso   1.000  Hf
  Hf20     1.0000 0.03138  0.13187  0.44212  Biso   1.000  Hf
  Hf21     1.0000 0.02305  0.17012  0.91666  Biso   1.000  Hf
  Hf22     1.0000 0.52915  0.13277  0.44734  Biso   1.000  Hf
  Hf23     1.0000 0.52327  0.14028  0.94618  Biso   1.000  Hf
  Hf24     1.0000 0.45731  0.87132  0.19241  Biso   1.000  Hf
  Hf25     1.0000 0.45903  0.86390  0.69317  Biso   1.000  Hf
  Hf26     1.0000 0.92512  0.88363  0.19897  Biso   1.000  Hf
  Hf27     1.0000 0.95803  0.86845  0.69965  Biso   1.000  Hf
  Hf28     1.0000 0.45579  0.63509  0.44537  Biso   1.000  Hf
  Hf29     1.0000 0.46072  0.62940  0.94568  Biso   1.000  Hf
  Hf30     1.0000 0.95498  0.64120  0.44521  Biso   1.000  Hf
  Hf31     1.0000 0.95817  0.66834  0.95849  Biso   1.000  Hf
  Hf32     1.0000 0.27614  0.24807  0.24797  Biso   1.000  Hf
  Hf33     1.0000 0.26290  0.24392  0.76151  Biso   1.000  Hf
  Hf34     1.0000 0.76146  0.24462  0.25437  Biso   1.000  Hf
  Hf35     1.0000 0.76451  0.24376  0.74836  Biso   1.000  Hf
  Hf36     1.0000 0.26387  0.26542  0.50226  Biso   1.000  Hf
  Hf37     1.0000 0.76190  0.27160  0.50121  Biso   1.000  Hf
  Hf38     1.0000 0.77010  0.26253  0.00013  Biso   1.000  Hf
  Hf39     1.0000 0.22108  0.77244  0.49929  Biso   1.000  Hf
  Hf40     1.0000 0.23195  0.74051  0.98718  Biso   1.000  Hf
  Hf41     1.0000 0.72089  0.76928  0.50290  Biso   1.000  Hf
  Hf42     1.0000 0.72501  0.76274  0.00024  Biso   1.000  Hf
  Hf43     1.0000 0.23549  0.72103  0.25707  Biso   1.000  Hf
  Hf44     1.0000 0.22421  0.74428  0.74028  Biso   1.000  Hf
  Hf45     1.0000 0.70870  0.73966  0.25446  Biso   1.000  Hf
  Hf46     1.0000 0.72241  0.74269  0.75065  Biso   1.000  Hf
