data_image0
_cell_length_a       10.196
_cell_length_b       5.16709
_cell_length_c       10.4217
_cell_angle_alpha    90
_cell_angle_beta     80
_cell_angle_gamma    90

_symmetry_space_group_name_H-M    "P 1"
_symmetry_int_tables_number       1

loop_
  _symmetry_equiv_pos_as_xyz
  'x, y, z'

loop_
  _atom_site_label
  _atom_site_occupancy
  _atom_site_fract_x
  _atom_site_fract_y
  _atom_site_fract_z
  _atom_site_thermal_displace_type
  _atom_site_B_iso_or_equiv
  _atom_site_type_symbol
  La1      1.0000 0.12347  0.00745  0.13780  Biso   1.000  La
  Hf1      1.0000 0.12380  0.04242  0.64851  Biso   1.000  Hf
  Hf2      1.0000 0.65140  0.04238  0.14830  Biso   1.000  Hf
  Hf3      1.0000 0.62582  0.04378  0.64901  Biso   1.000  Hf
  Hf4      1.0000 0.12947  0.45075  0.39548  Biso   1.000  Hf
  Hf5      1.0000 0.12097  0.46566  0.89450  Biso   1.000  Hf
  Hf6      1.0000 0.62206  0.45545  0.39897  Biso   1.000  Hf
  Hf7      1.0000 0.62424  0.45948  0.89921  Biso   1.000  Hf
  Hf8      1.0000 0.35929  0.50465  0.09817  Biso   1.000  Hf
  Hf9      1.0000 0.34527  0.54065  0.60512  Biso   1.000  Hf
  Hf10     1.0000 0.85741  0.54368  0.10519  Biso   1.000  Hf
  Hf11     1.0000 0.84979  0.54300  0.60538  Biso   1.000  Hf
  Hf12     1.0000 0.34899  0.96292  0.36026  Biso   1.000  Hf
  Hf13     1.0000 0.34953  0.95197  0.85371  Biso   1.000  Hf
  Hf14     1.0000 0.84419  0.96073  0.36250  Biso   1.000  Hf
  Hf15     1.0000 0.84335  0.95860  0.85657  Biso   1.000  Hf
  Hf16     1.0000 0.04403  0.42008  0.08998  Biso   1.000  Hf
  Hf17     1.0000 0.02641  0.35433  0.58822  Biso   1.000  Hf
  Hf18     1.0000 0.53607  0.31901  0.08062  Biso   1.000  Hf
  Hf19     1.0000 0.51687  0.32668  0.58038  Biso   1.000  Hf
  Hf20     1.0000 0.01930  0.15389  0.34954  Biso   1.000  Hf
  Hf21     1.0000 0.02275  0.14718  0.84215  Biso   1.000  Hf
  Hf22     1.0000 0.52726  0.15114  0.32528  Biso   1.000  Hf
  Hf23     1.0000 0.52134  0.17056  0.82963  Biso   1.000  Hf
  Hf24     1.0000 0.45291  0.82596  0.67410  Biso   1.000  Hf
  Hf25     1.0000 0.90807  0.89072  0.16480  Biso   1.000  Hf
  Hf26     1.0000 0.94574  0.85193  0.66827  Biso   1.000  Hf
  Hf27     1.0000 0.44956  0.65894  0.42144  Biso   1.000  Hf
  Hf28     1.0000 0.46048  0.68248  0.93469  Biso   1.000  Hf
  Hf29     1.0000 0.95349  0.65669  0.41310  Biso   1.000  Hf
  Hf30     1.0000 0.94231  0.65424  0.91576  Biso   1.000  Hf
  Hf31     1.0000 0.27409  0.24553  0.24595  Biso   1.000  Hf
  Hf32     1.0000 0.26001  0.25859  0.74102  Biso   1.000  Hf
  Hf33     1.0000 0.76615  0.27501  0.24776  Biso   1.000  Hf
  Hf34     1.0000 0.76339  0.26008  0.74319  Biso   1.000  Hf
  Hf35     1.0000 0.26204  0.24070  0.49405  Biso   1.000  Hf
  Hf36     1.0000 0.26467  0.24108  0.98368  Biso   1.000  Hf
  Hf37     1.0000 0.75977  0.24376  0.49611  Biso   1.000  Hf
  Hf38     1.0000 0.75965  0.24453  0.99507  Biso   1.000  Hf
  Hf39     1.0000 0.22445  0.73070  0.99377  Biso   1.000  Hf
  Hf40     1.0000 0.20833  0.76059  0.51021  Biso   1.000  Hf
  Hf41     1.0000 0.72343  0.75953  0.00830  Biso   1.000  Hf
  Hf42     1.0000 0.71118  0.75610  0.51315  Biso   1.000  Hf
  Hf43     1.0000 0.24605  0.71565  0.25542  Biso   1.000  Hf
  Hf44     1.0000 0.20782  0.74404  0.75681  Biso   1.000  Hf
  Hf45     1.0000 0.69648  0.74035  0.26766  Biso   1.000  Hf
  Hf46     1.0000 0.70959  0.74087  0.76105  Biso   1.000  Hf
