data_image0
_cell_length_a       5.08854
_cell_length_b       10.316
_cell_length_c       10.5065
_cell_angle_alpha    90
_cell_angle_beta     80
_cell_angle_gamma    90

_symmetry_space_group_name_H-M    "P 1"
_symmetry_int_tables_number       1

loop_
  _symmetry_equiv_pos_as_xyz
  'x, y, z'

loop_
  _atom_site_label
  _atom_site_occupancy
  _atom_site_fract_x
  _atom_site_fract_y
  _atom_site_fract_z
  _atom_site_thermal_displace_type
  _atom_site_B_iso_or_equiv
  _atom_site_type_symbol
  La1      1.0000 0.25401  0.00274  0.14375  Biso   1.000  La
  Hf1      1.0000 0.25511  0.02697  0.64918  Biso   1.000  Hf
  Hf2      1.0000 0.26540  0.51782  0.14623  Biso   1.000  Hf
  Hf3      1.0000 0.25063  0.52349  0.64786  Biso   1.000  Hf
  Hf4      1.0000 0.25566  0.23338  0.39955  Biso   1.000  Hf
  Hf5      1.0000 0.24468  0.23512  0.89957  Biso   1.000  Hf
  Hf6      1.0000 0.24431  0.72553  0.40148  Biso   1.000  Hf
  Hf7      1.0000 0.25447  0.73226  0.89046  Biso   1.000  Hf
  Hf8      1.0000 0.71058  0.26898  0.10484  Biso   1.000  Hf
  Hf9      1.0000 0.69796  0.27548  0.60709  Biso   1.000  Hf
  Hf10     1.0000 0.73008  0.75638  0.09015  Biso   1.000  Hf
  Hf11     1.0000 0.69331  0.77563  0.60302  Biso   1.000  Hf
  Hf12     1.0000 0.70110  0.48103  0.35501  Biso   1.000  Hf
  Hf13     1.0000 0.69317  0.48003  0.85465  Biso   1.000  Hf
  Hf14     1.0000 0.68697  0.98834  0.36768  Biso   1.000  Hf
  Hf15     1.0000 0.68715  0.98427  0.85414  Biso   1.000  Hf
  Hf16     1.0000 0.06330  0.18090  0.07870  Biso   1.000  Hf
  Hf17     1.0000 0.04660  0.17596  0.58614  Biso   1.000  Hf
  Hf18     1.0000 0.08633  0.67499  0.07845  Biso   1.000  Hf
  Hf19     1.0000 0.04284  0.67202  0.58258  Biso   1.000  Hf
  Hf20     1.0000 0.04121  0.08462  0.34672  Biso   1.000  Hf
  Hf21     1.0000 0.05084  0.08457  0.83253  Biso   1.000  Hf
  Hf22     1.0000 0.04815  0.58246  0.32883  Biso   1.000  Hf
  Hf23     1.0000 0.03920  0.58491  0.83113  Biso   1.000  Hf
  Hf24     1.0000 0.90585  0.42666  0.16776  Biso   1.000  Hf
  Hf25     1.0000 0.90078  0.42457  0.67045  Biso   1.000  Hf
  Hf26     1.0000 0.78929  0.91664  0.18506  Biso   1.000  Hf
  Hf27     1.0000 0.89607  0.92235  0.67149  Biso   1.000  Hf
  Hf28     1.0000 0.90412  0.33562  0.42155  Biso   1.000  Hf
  Hf29     1.0000 0.89303  0.33624  0.91965  Biso   1.000  Hf
  Hf30     1.0000 0.90637  0.83497  0.42121  Biso   1.000  Hf
  Hf31     1.0000 0.92122  0.84322  0.92302  Biso   1.000  Hf
  Hf32     1.0000 0.54107  0.13865  0.25321  Biso   1.000  Hf
  Hf33     1.0000 0.52970  0.13340  0.74270  Biso   1.000  Hf
  Hf34     1.0000 0.52572  0.64109  0.24126  Biso   1.000  Hf
  Hf35     1.0000 0.52481  0.63338  0.73911  Biso   1.000  Hf
  Hf36     1.0000 0.52223  0.12762  0.49914  Biso   1.000  Hf
  Hf37     1.0000 0.53065  0.12862  0.98671  Biso   1.000  Hf
  Hf38     1.0000 0.52686  0.62316  0.49128  Biso   1.000  Hf
  Hf39     1.0000 0.51776  0.61831  0.98974  Biso   1.000  Hf
  Hf40     1.0000 0.44137  0.37766  0.00972  Biso   1.000  Hf
  Hf41     1.0000 0.42307  0.38330  0.51151  Biso   1.000  Hf
  Hf42     1.0000 0.44063  0.86808  0.99564  Biso   1.000  Hf
  Hf43     1.0000 0.41726  0.88257  0.50798  Biso   1.000  Hf
  Hf44     1.0000 0.42618  0.37771  0.26152  Biso   1.000  Hf
  Hf45     1.0000 0.41816  0.37539  0.76091  Biso   1.000  Hf
  Hf46     1.0000 0.41640  0.87519  0.75484  Biso   1.000  Hf
