data_image0
_cell_length_a       10.0712
_cell_length_b       10.2546
_cell_length_c       5.25022
_cell_angle_alpha    90
_cell_angle_beta     90
_cell_angle_gamma    90

_symmetry_space_group_name_H-M    "P 1"
_symmetry_int_tables_number       1

loop_
  _symmetry_equiv_pos_as_xyz
  'x, y, z'

loop_
  _atom_site_label
  _atom_site_occupancy
  _atom_site_fract_x
  _atom_site_fract_y
  _atom_site_fract_z
  _atom_site_thermal_displace_type
  _atom_site_B_iso_or_equiv
  _atom_site_type_symbol
  La1      1.0000 0.11791  0.99805  0.30551  Biso   1.000  La
  Hf1      1.0000 0.13449  0.52039  0.32863  Biso   1.000  Hf
  Hf2      1.0000 0.13063  0.22705  0.82406  Biso   1.000  Hf
  Hf3      1.0000 0.12182  0.72726  0.83089  Biso   1.000  Hf
  Hf4      1.0000 0.35365  0.26742  0.33233  Biso   1.000  Hf
  Hf5      1.0000 0.36563  0.76349  0.35107  Biso   1.000  Hf
  Hf6      1.0000 0.35340  0.47550  0.83337  Biso   1.000  Hf
  Hf7      1.0000 0.36018  0.98484  0.81856  Biso   1.000  Hf
  Hf8      1.0000 0.63456  0.02078  0.16342  Biso   1.000  Hf
  Hf9      1.0000 0.63583  0.51693  0.15085  Biso   1.000  Hf
  Hf10     1.0000 0.63417  0.22851  0.65248  Biso   1.000  Hf
  Hf11     1.0000 0.63541  0.72498  0.65968  Biso   1.000  Hf
  Hf12     1.0000 0.86121  0.27301  0.15217  Biso   1.000  Hf
  Hf13     1.0000 0.85702  0.76695  0.17704  Biso   1.000  Hf
  Hf14     1.0000 0.85478  0.47700  0.65366  Biso   1.000  Hf
  Hf15     1.0000 0.85149  0.97614  0.68092  Biso   1.000  Hf
  Hf16     1.0000 0.03201  0.17989  0.15135  Biso   1.000  Hf
  Hf17     1.0000 0.02614  0.65615  0.14212  Biso   1.000  Hf
  Hf18     1.0000 0.01647  0.08932  0.66397  Biso   1.000  Hf
  Hf19     1.0000 0.02315  0.59054  0.64800  Biso   1.000  Hf
  Hf20     1.0000 0.46382  0.41465  0.15876  Biso   1.000  Hf
  Hf21     1.0000 0.44941  0.91777  0.16083  Biso   1.000  Hf
  Hf22     1.0000 0.46155  0.33343  0.65754  Biso   1.000  Hf
  Hf23     1.0000 0.47106  0.83557  0.65907  Biso   1.000  Hf
  Hf24     1.0000 0.27436  0.12457  0.57629  Biso   1.000  Hf
  Hf25     1.0000 0.26974  0.61770  0.57581  Biso   1.000  Hf
  Hf26     1.0000 0.28116  0.13064  0.05715  Biso   1.000  Hf
  Hf27     1.0000 0.27100  0.63685  0.07232  Biso   1.000  Hf
  Hf28     1.0000 0.21711  0.37221  0.57760  Biso   1.000  Hf
  Hf29     1.0000 0.22829  0.86289  0.61467  Biso   1.000  Hf
  Hf30     1.0000 0.22177  0.38116  0.07810  Biso   1.000  Hf
  Hf31     1.0000 0.52965  0.16461  0.32727  Biso   1.000  Hf
  Hf32     1.0000 0.53138  0.66148  0.33100  Biso   1.000  Hf
  Hf33     1.0000 0.53429  0.07966  0.82285  Biso   1.000  Hf
  Hf34     1.0000 0.52511  0.58299  0.83024  Biso   1.000  Hf
  Hf35     1.0000 0.96185  0.41770  0.33342  Biso   1.000  Hf
  Hf36     1.0000 0.95909  0.85100  0.46558  Biso   1.000  Hf
  Hf37     1.0000 0.95908  0.33872  0.82916  Biso   1.000  Hf
  Hf38     1.0000 0.97927  0.87201  0.95017  Biso   1.000  Hf
  Hf39     1.0000 0.76498  0.12188  0.92430  Biso   1.000  Hf
  Hf40     1.0000 0.76996  0.62031  0.91280  Biso   1.000  Hf
  Hf41     1.0000 0.77444  0.12112  0.41811  Biso   1.000  Hf
  Hf42     1.0000 0.76785  0.62237  0.41187  Biso   1.000  Hf
  Hf43     1.0000 0.71526  0.37189  0.90376  Biso   1.000  Hf
  Hf44     1.0000 0.72026  0.86635  0.91896  Biso   1.000  Hf
  Hf45     1.0000 0.71998  0.37336  0.40588  Biso   1.000  Hf
  Hf46     1.0000 0.71388  0.87822  0.41193  Biso   1.000  Hf
