data_image0
_cell_length_a       10.057
_cell_length_b       10.4216
_cell_length_c       10.0704
_cell_angle_alpha    90
_cell_angle_beta     90
_cell_angle_gamma    90

_symmetry_space_group_name_H-M    "P 1"
_symmetry_int_tables_number       1

loop_
  _symmetry_equiv_pos_as_xyz
  'x, y, z'

loop_
  _atom_site_label
  _atom_site_occupancy
  _atom_site_fract_x
  _atom_site_fract_y
  _atom_site_fract_z
  _atom_site_thermal_displace_type
  _atom_site_B_iso_or_equiv
  _atom_site_type_symbol
  La1      1.0000 0.12110  0.00585  0.12098  Biso   1.000  La
  La2      1.0000 0.11740  0.00380  0.62097  Biso   1.000  La
  Hf1      1.0000 0.13376  0.51604  0.12510  Biso   1.000  Hf
  Hf2      1.0000 0.13004  0.51401  0.62509  Biso   1.000  Hf
  Hf3      1.0000 0.63329  0.01583  0.12563  Biso   1.000  Hf
  Hf4      1.0000 0.62958  0.01378  0.62562  Biso   1.000  Hf
  Hf5      1.0000 0.63139  0.51396  0.12611  Biso   1.000  Hf
  Hf6      1.0000 0.62768  0.51193  0.62610  Biso   1.000  Hf
  Hf7      1.0000 0.13206  0.23663  0.37202  Biso   1.000  Hf
  Hf8      1.0000 0.12833  0.23457  0.87200  Biso   1.000  Hf
  Hf9      1.0000 0.13459  0.73018  0.37704  Biso   1.000  Hf
  Hf10     1.0000 0.13086  0.72813  0.87703  Biso   1.000  Hf
  Hf11     1.0000 0.63105  0.23195  0.37444  Biso   1.000  Hf
  Hf12     1.0000 0.62733  0.22989  0.87444  Biso   1.000  Hf
  Hf13     1.0000 0.63104  0.72925  0.37745  Biso   1.000  Hf
  Hf14     1.0000 0.62733  0.72721  0.87745  Biso   1.000  Hf
  Hf15     1.0000 0.36549  0.26535  0.12538  Biso   1.000  Hf
  Hf16     1.0000 0.36178  0.26330  0.62537  Biso   1.000  Hf
  Hf17     1.0000 0.36963  0.76247  0.12370  Biso   1.000  Hf
  Hf18     1.0000 0.36592  0.76043  0.62370  Biso   1.000  Hf
  Hf19     1.0000 0.86043  0.26987  0.12506  Biso   1.000  Hf
  Hf20     1.0000 0.85672  0.26782  0.62506  Biso   1.000  Hf
  Hf21     1.0000 0.86085  0.76115  0.12769  Biso   1.000  Hf
  Hf22     1.0000 0.85710  0.75910  0.62767  Biso   1.000  Hf
  Hf23     1.0000 0.36323  0.48045  0.37556  Biso   1.000  Hf
  Hf24     1.0000 0.35952  0.47840  0.87554  Biso   1.000  Hf
  Hf25     1.0000 0.36796  0.98188  0.37196  Biso   1.000  Hf
  Hf26     1.0000 0.36423  0.97982  0.87193  Biso   1.000  Hf
  Hf27     1.0000 0.86384  0.48221  0.37719  Biso   1.000  Hf
  Hf28     1.0000 0.86014  0.48015  0.87717  Biso   1.000  Hf
  Hf29     1.0000 0.85534  0.98015  0.37761  Biso   1.000  Hf
  Hf30     1.0000 0.85164  0.97810  0.87756  Biso   1.000  Hf
  Hf31     1.0000 0.03263  0.20432  0.19149  Biso   1.000  Hf
  Hf32     1.0000 0.02894  0.20228  0.69146  Biso   1.000  Hf
  Hf33     1.0000 0.03532  0.68589  0.19624  Biso   1.000  Hf
  Hf34     1.0000 0.03161  0.68385  0.69621  Biso   1.000  Hf
  Hf35     1.0000 0.53762  0.18420  0.19143  Biso   1.000  Hf
  Hf36     1.0000 0.53391  0.18214  0.69144  Biso   1.000  Hf
  Hf37     1.0000 0.53514  0.67952  0.19721  Biso   1.000  Hf
  Hf38     1.0000 0.53142  0.67748  0.69721  Biso   1.000  Hf
  Hf39     1.0000 0.02967  0.06990  0.40995  Biso   1.000  Hf
  Hf40     1.0000 0.02597  0.06784  0.90993  Biso   1.000  Hf
  Hf41     1.0000 0.03145  0.56715  0.44601  Biso   1.000  Hf
  Hf42     1.0000 0.02775  0.56508  0.94600  Biso   1.000  Hf
  Hf43     1.0000 0.53714  0.06362  0.44205  Biso   1.000  Hf
  Hf44     1.0000 0.53341  0.06158  0.94204  Biso   1.000  Hf
  Hf45     1.0000 0.53033  0.56401  0.44781  Biso   1.000  Hf
  Hf46     1.0000 0.52662  0.56196  0.94781  Biso   1.000  Hf
  Hf47     1.0000 0.46429  0.43155  0.19623  Biso   1.000  Hf
  Hf48     1.0000 0.46061  0.42950  0.69621  Biso   1.000  Hf
  Hf49     1.0000 0.46344  0.93439  0.19165  Biso   1.000  Hf
  Hf50     1.0000 0.45974  0.93235  0.69164  Biso   1.000  Hf
  Hf51     1.0000 0.96088  0.43981  0.19520  Biso   1.000  Hf
  Hf52     1.0000 0.95717  0.43776  0.69521  Biso   1.000  Hf
  Hf53     1.0000 0.93487  0.92642  0.20233  Biso   1.000  Hf
  Hf54     1.0000 0.93119  0.92436  0.70230  Biso   1.000  Hf
  Hf55     1.0000 0.46322  0.31486  0.44426  Biso   1.000  Hf
  Hf56     1.0000 0.45948  0.31280  0.94427  Biso   1.000  Hf
  Hf57     1.0000 0.47014  0.81617  0.44778  Biso   1.000  Hf
  Hf58     1.0000 0.46641  0.81411  0.94777  Biso   1.000  Hf
  Hf59     1.0000 0.96161  0.31869  0.44638  Biso   1.000  Hf
  Hf60     1.0000 0.95788  0.31664  0.94640  Biso   1.000  Hf
  Hf61     1.0000 0.97047  0.82174  0.45698  Biso   1.000  Hf
  Hf62     1.0000 0.96673  0.81968  0.95700  Biso   1.000  Hf
  Hf63     1.0000 0.28048  0.12647  0.25389  Biso   1.000  Hf
  Hf64     1.0000 0.27676  0.12444  0.75387  Biso   1.000  Hf
  Hf65     1.0000 0.26834  0.61223  0.24915  Biso   1.000  Hf
  Hf66     1.0000 0.26462  0.61020  0.74913  Biso   1.000  Hf
  Hf67     1.0000 0.76709  0.11773  0.25051  Biso   1.000  Hf
  Hf68     1.0000 0.76338  0.11568  0.75050  Biso   1.000  Hf
  Hf69     1.0000 0.76844  0.61523  0.24932  Biso   1.000  Hf
  Hf70     1.0000 0.76474  0.61320  0.74932  Biso   1.000  Hf
  Hf71     1.0000 0.27231  0.13399  0.49354  Biso   1.000  Hf
  Hf72     1.0000 0.26860  0.13195  0.99351  Biso   1.000  Hf
  Hf73     1.0000 0.26760  0.62721  0.49989  Biso   1.000  Hf
  Hf74     1.0000 0.26390  0.62514  0.99988  Biso   1.000  Hf
  Hf75     1.0000 0.76749  0.13108  0.50087  Biso   1.000  Hf
  Hf76     1.0000 0.77121  0.13312  0.00086  Biso   1.000  Hf
  Hf77     1.0000 0.76601  0.62784  0.49848  Biso   1.000  Hf
  Hf78     1.0000 0.76230  0.62580  0.99846  Biso   1.000  Hf
  Hf79     1.0000 0.22752  0.38172  0.49886  Biso   1.000  Hf
  Hf80     1.0000 0.22380  0.37968  0.99881  Biso   1.000  Hf
  Hf81     1.0000 0.24097  0.87046  0.49081  Biso   1.000  Hf
  Hf82     1.0000 0.23724  0.86844  0.99078  Biso   1.000  Hf
  Hf83     1.0000 0.72530  0.38117  0.49893  Biso   1.000  Hf
  Hf84     1.0000 0.72158  0.37912  0.99891  Biso   1.000  Hf
  Hf85     1.0000 0.72717  0.87635  0.50367  Biso   1.000  Hf
  Hf86     1.0000 0.73090  0.87839  0.00367  Biso   1.000  Hf
  Hf87     1.0000 0.22801  0.36921  0.24741  Biso   1.000  Hf
  Hf88     1.0000 0.22428  0.36716  0.74738  Biso   1.000  Hf
  Hf89     1.0000 0.24172  0.85422  0.25291  Biso   1.000  Hf
  Hf90     1.0000 0.23800  0.85216  0.75290  Biso   1.000  Hf
  Hf91     1.0000 0.72783  0.36781  0.25042  Biso   1.000  Hf
  Hf92     1.0000 0.72413  0.36576  0.75041  Biso   1.000  Hf
  Hf93     1.0000 0.71621  0.86494  0.25319  Biso   1.000  Hf
  Hf94     1.0000 0.71251  0.86289  0.75317  Biso   1.000  Hf
