data_image0
_cell_length_a       10.0883
_cell_length_b       10.3117
_cell_length_c       10.4653
_cell_angle_alpha    90
_cell_angle_beta     90
_cell_angle_gamma    90

_symmetry_space_group_name_H-M    "P 1"
_symmetry_int_tables_number       1

loop_
  _symmetry_equiv_pos_as_xyz
  'x, y, z'

loop_
  _atom_site_label
  _atom_site_occupancy
  _atom_site_fract_x
  _atom_site_fract_y
  _atom_site_fract_z
  _atom_site_thermal_displace_type
  _atom_site_B_iso_or_equiv
  _atom_site_type_symbol
  Hf1      1.0000 0.15091  0.00454  0.18104  Biso   1.000  Hf
  Hf2      1.0000 0.13973  0.01683  0.67103  Biso   1.000  Hf
  Hf3      1.0000 0.14496  0.52697  0.17484  Biso   1.000  Hf
  Hf4      1.0000 0.14181  0.52380  0.66990  Biso   1.000  Hf
  Hf5      1.0000 0.14149  0.23164  0.42175  Biso   1.000  Hf
  La1      1.0000 0.13990  0.24682  0.90233  Biso   1.000  La
  Hf6      1.0000 0.14246  0.72919  0.42547  Biso   1.000  Hf
  Hf7      1.0000 0.14187  0.72807  0.92119  Biso   1.000  Hf
  Hf8      1.0000 0.36067  0.27286  0.17262  Biso   1.000  Hf
  Hf9      1.0000 0.37150  0.27032  0.66683  Biso   1.000  Hf
  Hf10     1.0000 0.36906  0.76625  0.17072  Biso   1.000  Hf
  Hf11     1.0000 0.36616  0.77188  0.67394  Biso   1.000  Hf
  Hf12     1.0000 0.36420  0.48047  0.42235  Biso   1.000  Hf
  Hf13     1.0000 0.37230  0.48386  0.92155  Biso   1.000  Hf
  Hf14     1.0000 0.37077  0.97974  0.42615  Biso   1.000  Hf
  Hf15     1.0000 0.36191  0.97945  0.92055  Biso   1.000  Hf
  Hf16     1.0000 0.63054  0.01753  0.07854  Biso   1.000  Hf
  Hf17     1.0000 0.64417  0.02225  0.58024  Biso   1.000  Hf
  Hf18     1.0000 0.64405  0.51667  0.08104  Biso   1.000  Hf
  Hf19     1.0000 0.64212  0.52229  0.57831  Biso   1.000  Hf
  Hf20     1.0000 0.63546  0.23087  0.33249  Biso   1.000  Hf
  Hf21     1.0000 0.64357  0.22989  0.83230  Biso   1.000  Hf
  Hf22     1.0000 0.64345  0.72892  0.32819  Biso   1.000  Hf
  Hf23     1.0000 0.64239  0.72989  0.82963  Biso   1.000  Hf
  La2      1.0000 0.87206  0.25524  0.09194  Biso   1.000  La
  Hf24     1.0000 0.86381  0.27249  0.58021  Biso   1.000  Hf
  Hf25     1.0000 0.86372  0.76919  0.07698  Biso   1.000  Hf
  Hf26     1.0000 0.86387  0.77325  0.57670  Biso   1.000  Hf
  Hf27     1.0000 0.86616  0.48188  0.33147  Biso   1.000  Hf
  Hf28     1.0000 0.85935  0.48062  0.82742  Biso   1.000  Hf
  Hf29     1.0000 0.86291  0.98150  0.32526  Biso   1.000  Hf
  Hf30     1.0000 0.86379  0.97474  0.82709  Biso   1.000  Hf
  Hf31     1.0000 0.03630  0.16471  0.58214  Biso   1.000  Hf
  Hf32     1.0000 0.03998  0.67502  0.09085  Biso   1.000  Hf
  Hf33     1.0000 0.03755  0.67361  0.58752  Biso   1.000  Hf
  Hf34     1.0000 0.02442  0.10889  0.30147  Biso   1.000  Hf
  Hf35     1.0000 0.03546  0.06328  0.83797  Biso   1.000  Hf
  Hf36     1.0000 0.03910  0.58571  0.34214  Biso   1.000  Hf
  Hf37     1.0000 0.04141  0.57216  0.84075  Biso   1.000  Hf
  Hf38     1.0000 0.46995  0.41705  0.08717  Biso   1.000  Hf
  Hf39     1.0000 0.47194  0.41673  0.58173  Biso   1.000  Hf
  Hf40     1.0000 0.46360  0.91599  0.08529  Biso   1.000  Hf
  Hf41     1.0000 0.47388  0.91683  0.58661  Biso   1.000  Hf
  Hf42     1.0000 0.46394  0.33313  0.33613  Biso   1.000  Hf
  Hf43     1.0000 0.47058  0.33129  0.83623  Biso   1.000  Hf
  Hf44     1.0000 0.47258  0.83502  0.33384  Biso   1.000  Hf
  Hf45     1.0000 0.47016  0.83689  0.83553  Biso   1.000  Hf
  Hf46     1.0000 0.27641  0.12097  0.30159  Biso   1.000  Hf
  Hf47     1.0000 0.28744  0.11633  0.78474  Biso   1.000  Hf
  Hf48     1.0000 0.28116  0.62653  0.29809  Biso   1.000  Hf
  Hf49     1.0000 0.27932  0.63032  0.79724  Biso   1.000  Hf
  Hf50     1.0000 0.25622  0.12230  0.05849  Biso   1.000  Hf
  Hf51     1.0000 0.27751  0.12688  0.54409  Biso   1.000  Hf
  Hf52     1.0000 0.28128  0.62830  0.04565  Biso   1.000  Hf
  Hf53     1.0000 0.27971  0.62663  0.54692  Biso   1.000  Hf
  Hf54     1.0000 0.22486  0.37523  0.29564  Biso   1.000  Hf
  Hf55     1.0000 0.24887  0.39097  0.77921  Biso   1.000  Hf
  Hf56     1.0000 0.23061  0.87189  0.29716  Biso   1.000  Hf
  Hf57     1.0000 0.22604  0.87249  0.79523  Biso   1.000  Hf
  Hf58     1.0000 0.23184  0.38689  0.05039  Biso   1.000  Hf
  Hf59     1.0000 0.22668  0.37677  0.54070  Biso   1.000  Hf
  Hf60     1.0000 0.22643  0.87121  0.04435  Biso   1.000  Hf
  Hf61     1.0000 0.23080  0.87660  0.54587  Biso   1.000  Hf
  Hf62     1.0000 0.52722  0.16643  0.16756  Biso   1.000  Hf
  Hf63     1.0000 0.54190  0.16789  0.66604  Biso   1.000  Hf
  Hf64     1.0000 0.53892  0.66667  0.16601  Biso   1.000  Hf
  Hf65     1.0000 0.53531  0.66521  0.66832  Biso   1.000  Hf
  Hf66     1.0000 0.53510  0.08587  0.42107  Biso   1.000  Hf
  Hf67     1.0000 0.52654  0.08833  0.92040  Biso   1.000  Hf
  Hf68     1.0000 0.53712  0.58463  0.41592  Biso   1.000  Hf
  Hf69     1.0000 0.53921  0.58766  0.91844  Biso   1.000  Hf
  Hf70     1.0000 0.97484  0.42974  0.16855  Biso   1.000  Hf
  Hf71     1.0000 0.97037  0.42132  0.65961  Biso   1.000  Hf
  Hf72     1.0000 0.96714  0.93364  0.15066  Biso   1.000  Hf
  Hf73     1.0000 0.96738  0.91804  0.65884  Biso   1.000  Hf
  Hf74     1.0000 0.96789  0.33400  0.41550  Biso   1.000  Hf
  Hf75     1.0000 0.93734  0.31848  0.88977  Biso   1.000  Hf
  Hf76     1.0000 0.97491  0.84054  0.41058  Biso   1.000  Hf
  Hf77     1.0000 0.96490  0.82223  0.90860  Biso   1.000  Hf
  Hf78     1.0000 0.76813  0.11054  0.95262  Biso   1.000  Hf
  Hf79     1.0000 0.78031  0.12486  0.45639  Biso   1.000  Hf
  Hf80     1.0000 0.78155  0.62330  0.95660  Biso   1.000  Hf
  Hf81     1.0000 0.77987  0.62587  0.45499  Biso   1.000  Hf
  Hf82     1.0000 0.75253  0.11176  0.21529  Biso   1.000  Hf
  Hf83     1.0000 0.78085  0.12589  0.70576  Biso   1.000  Hf
  Hf84     1.0000 0.78099  0.62527  0.20566  Biso   1.000  Hf
  Hf85     1.0000 0.77869  0.62887  0.70373  Biso   1.000  Hf
  Hf86     1.0000 0.71404  0.37769  0.95533  Biso   1.000  Hf
  Hf87     1.0000 0.72708  0.37465  0.45837  Biso   1.000  Hf
  Hf88     1.0000 0.72395  0.86944  0.95655  Biso   1.000  Hf
  Hf89     1.0000 0.72931  0.87581  0.45320  Biso   1.000  Hf
  Hf90     1.0000 0.72261  0.37909  0.21501  Biso   1.000  Hf
  Hf91     1.0000 0.72545  0.37753  0.70453  Biso   1.000  Hf
  Hf92     1.0000 0.73250  0.87085  0.20485  Biso   1.000  Hf
  Hf93     1.0000 0.72675  0.87498  0.70367  Biso   1.000  Hf
