data_image0
_cell_length_a       10.1338
_cell_length_b       10.3105
_cell_length_c       10.4659
_cell_angle_alpha    90
_cell_angle_beta     90
_cell_angle_gamma    90

_symmetry_space_group_name_H-M    "P 1"
_symmetry_int_tables_number       1

loop_
  _symmetry_equiv_pos_as_xyz
  'x, y, z'

loop_
  _atom_site_label
  _atom_site_occupancy
  _atom_site_fract_x
  _atom_site_fract_y
  _atom_site_fract_z
  _atom_site_thermal_displace_type
  _atom_site_B_iso_or_equiv
  _atom_site_type_symbol
  La1      1.0000 0.12803  0.00636  0.15794  Biso   1.000  La
  Hf1      1.0000 0.13419  0.02119  0.67276  Biso   1.000  Hf
  Hf2      1.0000 0.14024  0.52192  0.16917  Biso   1.000  Hf
  Hf3      1.0000 0.13478  0.52100  0.67104  Biso   1.000  Hf
  La2      1.0000 0.12929  0.23431  0.41150  Biso   1.000  La
  Hf4      1.0000 0.13234  0.23303  0.91955  Biso   1.000  Hf
  Hf5      1.0000 0.13729  0.72805  0.42141  Biso   1.000  Hf
  Hf6      1.0000 0.13502  0.72702  0.91908  Biso   1.000  Hf
  Hf7      1.0000 0.36316  0.26770  0.16740  Biso   1.000  Hf
  Hf8      1.0000 0.35647  0.26942  0.67097  Biso   1.000  Hf
  Hf9      1.0000 0.36581  0.76785  0.17106  Biso   1.000  Hf
  Hf10     1.0000 0.35471  0.77143  0.66972  Biso   1.000  Hf
  Hf11     1.0000 0.36153  0.48113  0.41963  Biso   1.000  Hf
  Hf12     1.0000 0.35437  0.47756  0.92057  Biso   1.000  Hf
  Hf13     1.0000 0.35731  0.98025  0.42034  Biso   1.000  Hf
  Hf14     1.0000 0.35936  0.97968  0.91844  Biso   1.000  Hf
  Hf15     1.0000 0.64171  0.02103  0.08017  Biso   1.000  Hf
  Hf16     1.0000 0.63202  0.01893  0.58173  Biso   1.000  Hf
  Hf17     1.0000 0.63744  0.51900  0.07663  Biso   1.000  Hf
  Hf18     1.0000 0.63450  0.52034  0.57909  Biso   1.000  Hf
  Hf19     1.0000 0.63632  0.22995  0.33106  Biso   1.000  Hf
  Hf20     1.0000 0.63276  0.22845  0.83076  Biso   1.000  Hf
  Hf21     1.0000 0.63669  0.72870  0.32994  Biso   1.000  Hf
  Hf22     1.0000 0.63179  0.72846  0.82626  Biso   1.000  Hf
  Hf23     1.0000 0.85990  0.27393  0.07910  Biso   1.000  Hf
  Hf24     1.0000 0.85038  0.26867  0.58475  Biso   1.000  Hf
  Hf25     1.0000 0.85752  0.76503  0.07532  Biso   1.000  Hf
  Hf26     1.0000 0.85832  0.76942  0.58008  Biso   1.000  Hf
  Hf27     1.0000 0.85599  0.48377  0.32728  Biso   1.000  Hf
  Hf28     1.0000 0.85598  0.47852  0.82733  Biso   1.000  Hf
  Hf29     1.0000 0.84694  0.97765  0.33352  Biso   1.000  Hf
  Hf30     1.0000 0.85629  0.97789  0.83115  Biso   1.000  Hf
  Hf31     1.0000 0.03729  0.19444  0.09010  Biso   1.000  Hf
  Hf32     1.0000 0.02000  0.16797  0.60551  Biso   1.000  Hf
  Hf33     1.0000 0.03822  0.67856  0.09025  Biso   1.000  Hf
  Hf34     1.0000 0.03095  0.66824  0.58812  Biso   1.000  Hf
  Hf35     1.0000 0.02160  0.05297  0.35280  Biso   1.000  Hf
  Hf36     1.0000 0.03119  0.07522  0.84699  Biso   1.000  Hf
  Hf37     1.0000 0.03515  0.57517  0.33970  Biso   1.000  Hf
  Hf38     1.0000 0.02876  0.57905  0.83751  Biso   1.000  Hf
  Hf39     1.0000 0.46946  0.41282  0.07941  Biso   1.000  Hf
  Hf40     1.0000 0.46734  0.41259  0.58280  Biso   1.000  Hf
  Hf41     1.0000 0.47139  0.91702  0.08339  Biso   1.000  Hf
  Hf42     1.0000 0.46340  0.91200  0.58266  Biso   1.000  Hf
  Hf43     1.0000 0.46807  0.33534  0.33339  Biso   1.000  Hf
  Hf44     1.0000 0.46179  0.33395  0.83269  Biso   1.000  Hf
  Hf45     1.0000 0.47000  0.83670  0.33272  Biso   1.000  Hf
  Hf46     1.0000 0.46383  0.83588  0.82963  Biso   1.000  Hf
  Hf47     1.0000 0.29238  0.11909  0.28940  Biso   1.000  Hf
  Hf48     1.0000 0.26877  0.12456  0.79328  Biso   1.000  Hf
  Hf49     1.0000 0.27435  0.62567  0.29499  Biso   1.000  Hf
  Hf50     1.0000 0.27018  0.62380  0.79392  Biso   1.000  Hf
  Hf51     1.0000 0.28532  0.13369  0.03230  Biso   1.000  Hf
  Hf52     1.0000 0.27678  0.11982  0.55237  Biso   1.000  Hf
  Hf53     1.0000 0.27568  0.62051  0.04495  Biso   1.000  Hf
  Hf54     1.0000 0.27262  0.62849  0.54392  Biso   1.000  Hf
  Hf55     1.0000 0.23947  0.38633  0.28175  Biso   1.000  Hf
  Hf56     1.0000 0.21893  0.37369  0.79390  Biso   1.000  Hf
  Hf57     1.0000 0.23162  0.86244  0.30001  Biso   1.000  Hf
  Hf58     1.0000 0.21923  0.87300  0.79190  Biso   1.000  Hf
  Hf59     1.0000 0.22410  0.37870  0.04043  Biso   1.000  Hf
  Hf60     1.0000 0.22970  0.38610  0.54964  Biso   1.000  Hf
  Hf61     1.0000 0.24626  0.86061  0.03162  Biso   1.000  Hf
  Hf62     1.0000 0.21768  0.87639  0.54481  Biso   1.000  Hf
  Hf63     1.0000 0.53729  0.16752  0.16412  Biso   1.000  Hf
  Hf64     1.0000 0.52833  0.16470  0.66745  Biso   1.000  Hf
  Hf65     1.0000 0.53154  0.65982  0.16881  Biso   1.000  Hf
  Hf66     1.0000 0.52617  0.66343  0.66665  Biso   1.000  Hf
  Hf67     1.0000 0.53129  0.08300  0.41718  Biso   1.000  Hf
  Hf68     1.0000 0.53111  0.08239  0.91511  Biso   1.000  Hf
  Hf69     1.0000 0.52958  0.58720  0.41840  Biso   1.000  Hf
  Hf70     1.0000 0.52429  0.58628  0.91691  Biso   1.000  Hf
  Hf71     1.0000 0.96228  0.42699  0.16167  Biso   1.000  Hf
  Hf72     1.0000 0.96061  0.41956  0.66104  Biso   1.000  Hf
  Hf73     1.0000 0.92444  0.92461  0.15716  Biso   1.000  Hf
  Hf74     1.0000 0.96087  0.91572  0.66659  Biso   1.000  Hf
  Hf75     1.0000 0.93114  0.32852  0.41326  Biso   1.000  Hf
  Hf76     1.0000 0.95539  0.33039  0.90846  Biso   1.000  Hf
  Hf77     1.0000 0.95696  0.82169  0.41002  Biso   1.000  Hf
  Hf78     1.0000 0.96231  0.83002  0.91514  Biso   1.000  Hf
  Hf79     1.0000 0.77145  0.12357  0.95844  Biso   1.000  Hf
  Hf80     1.0000 0.76736  0.12265  0.46206  Biso   1.000  Hf
  Hf81     1.0000 0.76689  0.62076  0.95217  Biso   1.000  Hf
  Hf82     1.0000 0.77244  0.62242  0.45535  Biso   1.000  Hf
  Hf83     1.0000 0.77482  0.12914  0.21040  Biso   1.000  Hf
  Hf84     1.0000 0.76735  0.12333  0.71073  Biso   1.000  Hf
  Hf85     1.0000 0.77290  0.62827  0.20342  Biso   1.000  Hf
  Hf86     1.0000 0.77026  0.62569  0.70407  Biso   1.000  Hf
  Hf87     1.0000 0.71680  0.37418  0.95451  Biso   1.000  Hf
  Hf88     1.0000 0.70862  0.37478  0.45803  Biso   1.000  Hf
  Hf89     1.0000 0.71857  0.87211  0.95375  Biso   1.000  Hf
  Hf90     1.0000 0.71906  0.87101  0.45959  Biso   1.000  Hf
  Hf91     1.0000 0.72244  0.37823  0.20549  Biso   1.000  Hf
  Hf92     1.0000 0.71921  0.37511  0.70715  Biso   1.000  Hf
  Hf93     1.0000 0.70677  0.87428  0.20782  Biso   1.000  Hf
  Hf94     1.0000 0.72036  0.87399  0.70606  Biso   1.000  Hf
