data_image0
_cell_length_a       10.2172
_cell_length_b       10.3075
_cell_length_c       10.4882
_cell_angle_alpha    90
_cell_angle_beta     80
_cell_angle_gamma    90

_symmetry_space_group_name_H-M    "P 1"
_symmetry_int_tables_number       1

loop_
  _symmetry_equiv_pos_as_xyz
  'x, y, z'

loop_
  _atom_site_label
  _atom_site_occupancy
  _atom_site_fract_x
  _atom_site_fract_y
  _atom_site_fract_z
  _atom_site_thermal_displace_type
  _atom_site_B_iso_or_equiv
  _atom_site_type_symbol
  La1      1.0000 0.13295  0.01637  0.13943  Biso   1.000  La
  Hf1      1.0000 0.13026  0.01769  0.64635  Biso   1.000  Hf
  Hf2      1.0000 0.13576  0.52039  0.14648  Biso   1.000  Hf
  Hf3      1.0000 0.13026  0.52426  0.64555  Biso   1.000  Hf
  Hf4      1.0000 0.63578  0.01818  0.14762  Biso   1.000  Hf
  Hf5      1.0000 0.63070  0.02231  0.64814  Biso   1.000  Hf
  Hf6      1.0000 0.62667  0.52877  0.14951  Biso   1.000  Hf
  Hf7      1.0000 0.63107  0.52348  0.64578  Biso   1.000  Hf
  Hf8      1.0000 0.13256  0.23041  0.39996  Biso   1.000  Hf
  La2      1.0000 0.12010  0.24732  0.88433  Biso   1.000  La
  Hf9      1.0000 0.13109  0.72836  0.39543  Biso   1.000  Hf
  Hf10     1.0000 0.12517  0.73014  0.89492  Biso   1.000  Hf
  Hf11     1.0000 0.62953  0.22935  0.40105  Biso   1.000  Hf
  Hf12     1.0000 0.62359  0.23088  0.89672  Biso   1.000  Hf
  Hf13     1.0000 0.62922  0.72969  0.39794  Biso   1.000  Hf
  Hf14     1.0000 0.62523  0.73550  0.89571  Biso   1.000  Hf
  Hf15     1.0000 0.36318  0.27019  0.10498  Biso   1.000  Hf
  Hf16     1.0000 0.35629  0.27344  0.60249  Biso   1.000  Hf
  Hf17     1.0000 0.36058  0.77072  0.10071  Biso   1.000  Hf
  Hf18     1.0000 0.35291  0.77403  0.60427  Biso   1.000  Hf
  Hf19     1.0000 0.82459  0.28440  0.11226  Biso   1.000  Hf
  Hf20     1.0000 0.85452  0.27281  0.60890  Biso   1.000  Hf
  Hf21     1.0000 0.85596  0.76743  0.10375  Biso   1.000  Hf
  Hf22     1.0000 0.85228  0.77332  0.60311  Biso   1.000  Hf
  Hf23     1.0000 0.35182  0.47917  0.35470  Biso   1.000  Hf
  Hf24     1.0000 0.35627  0.48503  0.85513  Biso   1.000  Hf
  Hf25     1.0000 0.35548  0.98123  0.35473  Biso   1.000  Hf
  Hf26     1.0000 0.34884  0.98341  0.85244  Biso   1.000  Hf
  Hf27     1.0000 0.85626  0.47805  0.35721  Biso   1.000  Hf
  Hf28     1.0000 0.84477  0.48593  0.85708  Biso   1.000  Hf
  Hf29     1.0000 0.84854  0.98119  0.35758  Biso   1.000  Hf
  Hf30     1.0000 0.84772  0.97883  0.85680  Biso   1.000  Hf
  Hf31     1.0000 0.02888  0.17119  0.58892  Biso   1.000  Hf
  Hf32     1.0000 0.03333  0.66883  0.08113  Biso   1.000  Hf
  Hf33     1.0000 0.02421  0.66829  0.57838  Biso   1.000  Hf
  Hf34     1.0000 0.54032  0.17120  0.08064  Biso   1.000  Hf
  Hf35     1.0000 0.52782  0.16873  0.58015  Biso   1.000  Hf
  Hf36     1.0000 0.53274  0.67193  0.07686  Biso   1.000  Hf
  Hf37     1.0000 0.52594  0.66883  0.58066  Biso   1.000  Hf
  Hf38     1.0000 0.01581  0.09606  0.33559  Biso   1.000  Hf
  Hf39     1.0000 0.02670  0.06055  0.83927  Biso   1.000  Hf
  Hf40     1.0000 0.02694  0.58310  0.32739  Biso   1.000  Hf
  Hf41     1.0000 0.02552  0.57702  0.83308  Biso   1.000  Hf
  Hf42     1.0000 0.53138  0.08152  0.33152  Biso   1.000  Hf
  Hf43     1.0000 0.52558  0.08463  0.82943  Biso   1.000  Hf
  Hf44     1.0000 0.52351  0.58731  0.33005  Biso   1.000  Hf
  Hf45     1.0000 0.52679  0.58672  0.82924  Biso   1.000  Hf
  Hf46     1.0000 0.45830  0.42077  0.17398  Biso   1.000  Hf
  Hf47     1.0000 0.46522  0.41654  0.67228  Biso   1.000  Hf
  Hf48     1.0000 0.45866  0.92243  0.16848  Biso   1.000  Hf
  Hf49     1.0000 0.45700  0.91841  0.67180  Biso   1.000  Hf
  Hf50     1.0000 0.96214  0.39948  0.17642  Biso   1.000  Hf
  Hf51     1.0000 0.96047  0.41270  0.68349  Biso   1.000  Hf
  Hf52     1.0000 0.93047  0.92863  0.16840  Biso   1.000  Hf
  Hf53     1.0000 0.95145  0.91946  0.66972  Biso   1.000  Hf
  Hf54     1.0000 0.45817  0.33410  0.42154  Biso   1.000  Hf
  Hf55     1.0000 0.45323  0.33554  0.92174  Biso   1.000  Hf
  Hf56     1.0000 0.45669  0.83407  0.42309  Biso   1.000  Hf
  Hf57     1.0000 0.45572  0.83864  0.92161  Biso   1.000  Hf
  Hf58     1.0000 0.96039  0.34019  0.43206  Biso   1.000  Hf
  Hf59     1.0000 0.92030  0.33723  0.94359  Biso   1.000  Hf
  Hf60     1.0000 0.95833  0.83544  0.41703  Biso   1.000  Hf
  Hf61     1.0000 0.94574  0.82514  0.92141  Biso   1.000  Hf
  Hf62     1.0000 0.27803  0.13757  0.24870  Biso   1.000  Hf
  Hf63     1.0000 0.27319  0.12531  0.72931  Biso   1.000  Hf
  Hf64     1.0000 0.26908  0.62682  0.23831  Biso   1.000  Hf
  Hf65     1.0000 0.26447  0.63346  0.74015  Biso   1.000  Hf
  Hf66     1.0000 0.76756  0.13537  0.24433  Biso   1.000  Hf
  Hf67     1.0000 0.76657  0.13028  0.74448  Biso   1.000  Hf
  Hf68     1.0000 0.76935  0.62872  0.24123  Biso   1.000  Hf
  Hf69     1.0000 0.76709  0.63227  0.74020  Biso   1.000  Hf
  Hf70     1.0000 0.26668  0.12092  0.49071  Biso   1.000  Hf
  Hf71     1.0000 0.27485  0.12830  0.98813  Biso   1.000  Hf
  Hf72     1.0000 0.26637  0.62289  0.48980  Biso   1.000  Hf
  Hf73     1.0000 0.26022  0.62445  0.99073  Biso   1.000  Hf
  Hf74     1.0000 0.76689  0.12287  0.49485  Biso   1.000  Hf
  Hf75     1.0000 0.76299  0.12572  0.99657  Biso   1.000  Hf
  Hf76     1.0000 0.76803  0.62193  0.48991  Biso   1.000  Hf
  Hf77     1.0000 0.75639  0.62475  0.99324  Biso   1.000  Hf
  Hf78     1.0000 0.23420  0.38655  0.01467  Biso   1.000  Hf
  Hf79     1.0000 0.21657  0.38089  0.50948  Biso   1.000  Hf
  Hf80     1.0000 0.21827  0.87127  0.99775  Biso   1.000  Hf
  Hf81     1.0000 0.21463  0.87924  0.50913  Biso   1.000  Hf
  Hf82     1.0000 0.70290  0.38524  0.01563  Biso   1.000  Hf
  Hf83     1.0000 0.71881  0.37982  0.51202  Biso   1.000  Hf
  Hf84     1.0000 0.72277  0.87871  0.00915  Biso   1.000  Hf
  Hf85     1.0000 0.71567  0.87997  0.51125  Biso   1.000  Hf
  Hf86     1.0000 0.21593  0.37263  0.26206  Biso   1.000  Hf
  Hf87     1.0000 0.23173  0.38684  0.74636  Biso   1.000  Hf
  Hf88     1.0000 0.22602  0.86454  0.26104  Biso   1.000  Hf
  Hf89     1.0000 0.21343  0.87141  0.75685  Biso   1.000  Hf
  Hf90     1.0000 0.71010  0.37899  0.26597  Biso   1.000  Hf
  Hf91     1.0000 0.71568  0.37378  0.76268  Biso   1.000  Hf
  Hf92     1.0000 0.70708  0.87071  0.26456  Biso   1.000  Hf
  Hf93     1.0000 0.71282  0.87268  0.75950  Biso   1.000  Hf
