data_image0
_cell_length_a       10.0621
_cell_length_b       10.3996
_cell_length_c       10.103
_cell_angle_alpha    90
_cell_angle_beta     90
_cell_angle_gamma    90

_symmetry_space_group_name_H-M    "P 1"
_symmetry_int_tables_number       1

loop_
  _symmetry_equiv_pos_as_xyz
  'x, y, z'

loop_
  _atom_site_label
  _atom_site_occupancy
  _atom_site_fract_x
  _atom_site_fract_y
  _atom_site_fract_z
  _atom_site_thermal_displace_type
  _atom_site_B_iso_or_equiv
  _atom_site_type_symbol
  La1      1.0000 0.12272  0.00478  0.12051  Biso   1.000  La
  Hf1      1.0000 0.12688  0.01151  0.62515  Biso   1.000  Hf
  Hf2      1.0000 0.13177  0.51629  0.12482  Biso   1.000  Hf
  Hf3      1.0000 0.12843  0.51241  0.62534  Biso   1.000  Hf
  Hf4      1.0000 0.63325  0.01510  0.12536  Biso   1.000  Hf
  Hf5      1.0000 0.62747  0.01350  0.62483  Biso   1.000  Hf
  Hf6      1.0000 0.63117  0.51421  0.12516  Biso   1.000  Hf
  La2      1.0000 0.61792  0.50207  0.62050  Biso   1.000  La
  Hf7      1.0000 0.13362  0.23103  0.37605  Biso   1.000  Hf
  Hf8      1.0000 0.12522  0.23049  0.87317  Biso   1.000  Hf
  Hf9      1.0000 0.13233  0.73072  0.37685  Biso   1.000  Hf
  Hf10     1.0000 0.12731  0.72812  0.87389  Biso   1.000  Hf
  Hf11     1.0000 0.63212  0.23083  0.37392  Biso   1.000  Hf
  Hf12     1.0000 0.62798  0.22799  0.87681  Biso   1.000  Hf
  Hf13     1.0000 0.62952  0.73319  0.37319  Biso   1.000  Hf
  Hf14     1.0000 0.62878  0.72828  0.87604  Biso   1.000  Hf
  Hf15     1.0000 0.36411  0.26355  0.12628  Biso   1.000  Hf
  Hf16     1.0000 0.35568  0.25979  0.62735  Biso   1.000  Hf
  Hf17     1.0000 0.36913  0.76368  0.12307  Biso   1.000  Hf
  Hf18     1.0000 0.35706  0.76552  0.62548  Biso   1.000  Hf
  Hf19     1.0000 0.86190  0.26823  0.12548  Biso   1.000  Hf
  Hf20     1.0000 0.86480  0.26092  0.62306  Biso   1.000  Hf
  Hf21     1.0000 0.86000  0.76252  0.12735  Biso   1.000  Hf
  Hf22     1.0000 0.85928  0.76081  0.62625  Biso   1.000  Hf
  Hf23     1.0000 0.35870  0.47975  0.37175  Biso   1.000  Hf
  Hf24     1.0000 0.35341  0.47730  0.88161  Biso   1.000  Hf
  Hf25     1.0000 0.36284  0.98169  0.37506  Biso   1.000  Hf
  Hf26     1.0000 0.36102  0.98045  0.87328  Biso   1.000  Hf
  Hf27     1.0000 0.86583  0.48315  0.37328  Biso   1.000  Hf
  Hf28     1.0000 0.85856  0.47893  0.87501  Biso   1.000  Hf
  Hf29     1.0000 0.85768  0.98005  0.38164  Biso   1.000  Hf
  Hf30     1.0000 0.85389  0.97705  0.87173  Biso   1.000  Hf
  Hf31     1.0000 0.02489  0.19409  0.20536  Biso   1.000  Hf
  Hf32     1.0000 0.03392  0.18205  0.68662  Biso   1.000  Hf
  Hf33     1.0000 0.03375  0.68517  0.19627  Biso   1.000  Hf
  Hf34     1.0000 0.03145  0.68078  0.69278  Biso   1.000  Hf
  Hf35     1.0000 0.53629  0.18351  0.19280  Biso   1.000  Hf
  Hf36     1.0000 0.52943  0.18240  0.69627  Biso   1.000  Hf
  Hf37     1.0000 0.53821  0.68476  0.18668  Biso   1.000  Hf
  Hf38     1.0000 0.52005  0.69133  0.70537  Biso   1.000  Hf
  Hf39     1.0000 0.02938  0.06392  0.44381  Biso   1.000  Hf
  Hf40     1.0000 0.02123  0.06909  0.91835  Biso   1.000  Hf
  Hf41     1.0000 0.03454  0.56395  0.44401  Biso   1.000  Hf
  Hf42     1.0000 0.02597  0.56454  0.94542  Biso   1.000  Hf
  Hf43     1.0000 0.53077  0.06727  0.44542  Biso   1.000  Hf
  Hf44     1.0000 0.53024  0.06120  0.94399  Biso   1.000  Hf
  Hf45     1.0000 0.52548  0.57185  0.41838  Biso   1.000  Hf
  Hf46     1.0000 0.52456  0.56117  0.94388  Biso   1.000  Hf
  Hf47     1.0000 0.46096  0.43112  0.19364  Biso   1.000  Hf
  Hf48     1.0000 0.43495  0.42246  0.70785  Biso   1.000  Hf
  Hf49     1.0000 0.46298  0.93513  0.19494  Biso   1.000  Hf
  Hf50     1.0000 0.45610  0.93483  0.69416  Biso   1.000  Hf
  Hf51     1.0000 0.96094  0.43754  0.19420  Biso   1.000  Hf
  Hf52     1.0000 0.95867  0.43238  0.69495  Biso   1.000  Hf
  Hf53     1.0000 0.93915  0.92525  0.20781  Biso   1.000  Hf
  Hf54     1.0000 0.95612  0.92839  0.69359  Biso   1.000  Hf
  Hf55     1.0000 0.46963  0.32148  0.45560  Biso   1.000  Hf
  Hf56     1.0000 0.45914  0.31184  0.94857  Biso   1.000  Hf
  Hf57     1.0000 0.46382  0.81783  0.45047  Biso   1.000  Hf
  Hf58     1.0000 0.46575  0.81690  0.94867  Biso   1.000  Hf
  Hf59     1.0000 0.97057  0.31965  0.44867  Biso   1.000  Hf
  Hf60     1.0000 0.95949  0.31508  0.95042  Biso   1.000  Hf
  Hf61     1.0000 0.96346  0.81458  0.44857  Biso   1.000  Hf
  Hf62     1.0000 0.96482  0.81873  0.95563  Biso   1.000  Hf
  Hf63     1.0000 0.27848  0.12470  0.25522  Biso   1.000  Hf
  Hf64     1.0000 0.26345  0.11306  0.74718  Biso   1.000  Hf
  Hf65     1.0000 0.26675  0.61232  0.24790  Biso   1.000  Hf
  Hf66     1.0000 0.26082  0.61280  0.75152  Biso   1.000  Hf
  Hf67     1.0000 0.76560  0.11551  0.25161  Biso   1.000  Hf
  Hf68     1.0000 0.76244  0.10958  0.74792  Biso   1.000  Hf
  Hf69     1.0000 0.76775  0.61578  0.24720  Biso   1.000  Hf
  Hf70     1.0000 0.77363  0.62196  0.75517  Biso   1.000  Hf
  Hf71     1.0000 0.26426  0.12679  0.50007  Biso   1.000  Hf
  Hf72     1.0000 0.26704  0.13151  0.99071  Biso   1.000  Hf
  Hf73     1.0000 0.26763  0.62947  0.49978  Biso   1.000  Hf
  Hf74     1.0000 0.26860  0.63093  0.00092  Biso   1.000  Hf
  Hf75     1.0000 0.76428  0.12816  0.50095  Biso   1.000  Hf
  Hf76     1.0000 0.76333  0.12672  0.99979  Biso   1.000  Hf
  Hf77     1.0000 0.77133  0.63423  0.49075  Biso   1.000  Hf
  Hf78     1.0000 0.76858  0.62952  0.00008  Biso   1.000  Hf
  Hf79     1.0000 0.22878  0.37824  0.50019  Biso   1.000  Hf
  Hf80     1.0000 0.22937  0.38184  0.00169  Biso   1.000  Hf
  Hf81     1.0000 0.22433  0.88121  0.49817  Biso   1.000  Hf
  Hf82     1.0000 0.23596  0.86634  0.98789  Biso   1.000  Hf
  Hf83     1.0000 0.74079  0.36905  0.48792  Biso   1.000  Hf
  Hf84     1.0000 0.72004  0.37847  0.99814  Biso   1.000  Hf
  Hf85     1.0000 0.72456  0.87910  0.50166  Biso   1.000  Hf
  Hf86     1.0000 0.73306  0.88097  0.00018  Biso   1.000  Hf
  Hf87     1.0000 0.22543  0.36647  0.24903  Biso   1.000  Hf
  Hf88     1.0000 0.21294  0.36325  0.74933  Biso   1.000  Hf
  Hf89     1.0000 0.24218  0.85330  0.25594  Biso   1.000  Hf
  Hf90     1.0000 0.22170  0.86463  0.74632  Biso   1.000  Hf
  Hf91     1.0000 0.72653  0.36733  0.24635  Biso   1.000  Hf
  Hf92     1.0000 0.73785  0.35055  0.75589  Biso   1.000  Hf
  Hf93     1.0000 0.71720  0.86597  0.24936  Biso   1.000  Hf
  Hf94     1.0000 0.72060  0.86374  0.74900  Biso   1.000  Hf
