data_image0
_cell_length_a       10.2097
_cell_length_b       10.3471
_cell_length_c       10.4632
_cell_angle_alpha    90
_cell_angle_beta     80
_cell_angle_gamma    90

_symmetry_space_group_name_H-M    "P 1"
_symmetry_int_tables_number       1

loop_
  _symmetry_equiv_pos_as_xyz
  'x, y, z'

loop_
  _atom_site_label
  _atom_site_occupancy
  _atom_site_fract_x
  _atom_site_fract_y
  _atom_site_fract_z
  _atom_site_thermal_displace_type
  _atom_site_B_iso_or_equiv
  _atom_site_type_symbol
  La1      1.0000 0.12532  0.00671  0.13724  Biso   1.000  La
  Hf1      1.0000 0.13009  0.02044  0.64866  Biso   1.000  Hf
  Hf2      1.0000 0.13983  0.52165  0.14258  Biso   1.000  Hf
  Hf3      1.0000 0.13110  0.52165  0.64691  Biso   1.000  Hf
  Hf4      1.0000 0.64105  0.02055  0.14698  Biso   1.000  Hf
  Hf5      1.0000 0.62848  0.01979  0.64944  Biso   1.000  Hf
  Hf6      1.0000 0.63930  0.51855  0.14502  Biso   1.000  Hf
  Hf7      1.0000 0.62712  0.52126  0.64847  Biso   1.000  Hf
  La2      1.0000 0.12682  0.23430  0.38962  Biso   1.000  La
  Hf8      1.0000 0.12667  0.23169  0.89664  Biso   1.000  Hf
  Hf9      1.0000 0.13496  0.72748  0.39533  Biso   1.000  Hf
  Hf10     1.0000 0.12977  0.72676  0.89578  Biso   1.000  Hf
  Hf11     1.0000 0.63294  0.23070  0.39797  Biso   1.000  Hf
  Hf12     1.0000 0.62874  0.22676  0.89979  Biso   1.000  Hf
  Hf13     1.0000 0.62931  0.72774  0.39947  Biso   1.000  Hf
  Hf14     1.0000 0.63005  0.72780  0.89554  Biso   1.000  Hf
  Hf15     1.0000 0.36312  0.26885  0.10082  Biso   1.000  Hf
  Hf16     1.0000 0.35263  0.26918  0.60498  Biso   1.000  Hf
  Hf17     1.0000 0.36793  0.76832  0.10341  Biso   1.000  Hf
  Hf18     1.0000 0.35007  0.77167  0.60399  Biso   1.000  Hf
  Hf19     1.0000 0.86021  0.27423  0.10524  Biso   1.000  Hf
  Hf20     1.0000 0.84548  0.27017  0.61162  Biso   1.000  Hf
  Hf21     1.0000 0.85672  0.76500  0.10251  Biso   1.000  Hf
  Hf22     1.0000 0.85440  0.76937  0.60588  Biso   1.000  Hf
  Hf23     1.0000 0.35982  0.48049  0.35214  Biso   1.000  Hf
  Hf24     1.0000 0.35035  0.47623  0.85530  Biso   1.000  Hf
  Hf25     1.0000 0.35827  0.98081  0.35448  Biso   1.000  Hf
  Hf26     1.0000 0.35307  0.97805  0.85317  Biso   1.000  Hf
  Hf27     1.0000 0.85351  0.48434  0.35449  Biso   1.000  Hf
  Hf28     1.0000 0.85121  0.47729  0.85425  Biso   1.000  Hf
  Hf29     1.0000 0.84427  0.97590  0.36105  Biso   1.000  Hf
  Hf30     1.0000 0.85207  0.97658  0.85806  Biso   1.000  Hf
  Hf31     1.0000 0.04013  0.19723  0.08523  Biso   1.000  Hf
  Hf32     1.0000 0.01733  0.16821  0.60157  Biso   1.000  Hf
  Hf33     1.0000 0.04084  0.68172  0.08599  Biso   1.000  Hf
  Hf34     1.0000 0.02897  0.66937  0.58277  Biso   1.000  Hf
  Hf35     1.0000 0.53916  0.16726  0.07818  Biso   1.000  Hf
  Hf36     1.0000 0.52642  0.16775  0.58278  Biso   1.000  Hf
  Hf37     1.0000 0.53930  0.66624  0.07734  Biso   1.000  Hf
  Hf38     1.0000 0.52342  0.66598  0.58159  Biso   1.000  Hf
  Hf39     1.0000 0.02035  0.05078  0.34895  Biso   1.000  Hf
  Hf40     1.0000 0.02806  0.07288  0.84285  Biso   1.000  Hf
  Hf41     1.0000 0.03583  0.57243  0.33412  Biso   1.000  Hf
  Hf42     1.0000 0.02603  0.57678  0.83444  Biso   1.000  Hf
  Hf43     1.0000 0.53411  0.08000  0.33144  Biso   1.000  Hf
  Hf44     1.0000 0.52491  0.08152  0.83119  Biso   1.000  Hf
  Hf45     1.0000 0.53172  0.58199  0.32845  Biso   1.000  Hf
  Hf46     1.0000 0.52328  0.58207  0.83166  Biso   1.000  Hf
  Hf47     1.0000 0.47206  0.41367  0.16997  Biso   1.000  Hf
  Hf48     1.0000 0.45550  0.41637  0.67342  Biso   1.000  Hf
  Hf49     1.0000 0.46919  0.91669  0.16956  Biso   1.000  Hf
  Hf50     1.0000 0.45629  0.91683  0.67167  Biso   1.000  Hf
  Hf51     1.0000 0.95864  0.42980  0.16693  Biso   1.000  Hf
  Hf52     1.0000 0.95496  0.42045  0.66729  Biso   1.000  Hf
  Hf53     1.0000 0.91938  0.92921  0.16795  Biso   1.000  Hf
  Hf54     1.0000 0.95582  0.91688  0.67280  Biso   1.000  Hf
  Hf55     1.0000 0.45809  0.32895  0.41921  Biso   1.000  Hf
  Hf56     1.0000 0.45689  0.33245  0.92186  Biso   1.000  Hf
  Hf57     1.0000 0.45838  0.83223  0.42429  Biso   1.000  Hf
  Hf58     1.0000 0.46362  0.83474  0.92159  Biso   1.000  Hf
  Hf59     1.0000 0.92544  0.32551  0.42371  Biso   1.000  Hf
  Hf60     1.0000 0.94822  0.32705  0.91590  Biso   1.000  Hf
  Hf61     1.0000 0.95164  0.81907  0.41627  Biso   1.000  Hf
  Hf62     1.0000 0.95446  0.82731  0.92214  Biso   1.000  Hf
  Hf63     1.0000 0.29177  0.12631  0.23547  Biso   1.000  Hf
  Hf64     1.0000 0.26429  0.12888  0.74211  Biso   1.000  Hf
  Hf65     1.0000 0.27486  0.62740  0.23829  Biso   1.000  Hf
  Hf66     1.0000 0.26602  0.62813  0.74108  Biso   1.000  Hf
  Hf67     1.0000 0.77108  0.13353  0.24507  Biso   1.000  Hf
  Hf68     1.0000 0.76383  0.12652  0.74661  Biso   1.000  Hf
  Hf69     1.0000 0.77136  0.63012  0.24165  Biso   1.000  Hf
  Hf70     1.0000 0.76620  0.62775  0.74098  Biso   1.000  Hf
  Hf71     1.0000 0.27470  0.11362  0.50009  Biso   1.000  Hf
  Hf72     1.0000 0.27072  0.12542  0.98126  Biso   1.000  Hf
  Hf73     1.0000 0.26993  0.62464  0.48913  Biso   1.000  Hf
  Hf74     1.0000 0.26343  0.61633  0.99137  Biso   1.000  Hf
  Hf75     1.0000 0.76285  0.11891  0.49748  Biso   1.000  Hf
  Hf76     1.0000 0.76571  0.11897  0.99491  Biso   1.000  Hf
  Hf77     1.0000 0.76623  0.61999  0.49314  Biso   1.000  Hf
  Hf78     1.0000 0.76436  0.61752  0.99075  Biso   1.000  Hf
  Hf79     1.0000 0.22685  0.38066  0.00378  Biso   1.000  Hf
  Hf80     1.0000 0.22788  0.38963  0.51350  Biso   1.000  Hf
  Hf81     1.0000 0.23005  0.86334  0.99609  Biso   1.000  Hf
  Hf82     1.0000 0.21357  0.87763  0.51034  Biso   1.000  Hf
  Hf83     1.0000 0.72627  0.37989  0.00840  Biso   1.000  Hf
  Hf84     1.0000 0.70380  0.37959  0.51595  Biso   1.000  Hf
  Hf85     1.0000 0.72649  0.87781  0.00738  Biso   1.000  Hf
  Hf86     1.0000 0.71469  0.87575  0.51473  Biso   1.000  Hf
  Hf87     1.0000 0.23523  0.38288  0.24340  Biso   1.000  Hf
  Hf88     1.0000 0.21387  0.37048  0.76006  Biso   1.000  Hf
  Hf89     1.0000 0.23502  0.85968  0.26256  Biso   1.000  Hf
  Hf90     1.0000 0.21412  0.86966  0.75816  Biso   1.000  Hf
  Hf91     1.0000 0.72090  0.37372  0.26083  Biso   1.000  Hf
  Hf92     1.0000 0.71359  0.37019  0.76269  Biso   1.000  Hf
  Hf93     1.0000 0.70511  0.86713  0.26447  Biso   1.000  Hf
  Hf94     1.0000 0.71676  0.86961  0.76093  Biso   1.000  Hf
