data_image0
_cell_length_a       10.2035
_cell_length_b       10.2916
_cell_length_c       10.5259
_cell_angle_alpha    90
_cell_angle_beta     80
_cell_angle_gamma    90

_symmetry_space_group_name_H-M    "P 1"
_symmetry_int_tables_number       1

loop_
  _symmetry_equiv_pos_as_xyz
  'x, y, z'

loop_
  _atom_site_label
  _atom_site_occupancy
  _atom_site_fract_x
  _atom_site_fract_y
  _atom_site_fract_z
  _atom_site_thermal_displace_type
  _atom_site_B_iso_or_equiv
  _atom_site_type_symbol
  La1      1.0000 0.12282  0.00645  0.14283  Biso   1.000  La
  Hf1      1.0000 0.12818  0.02030  0.64720  Biso   1.000  Hf
  Hf2      1.0000 0.13672  0.51453  0.14514  Biso   1.000  Hf
  Hf3      1.0000 0.12774  0.52204  0.64539  Biso   1.000  Hf
  Hf4      1.0000 0.64024  0.01350  0.14834  Biso   1.000  Hf
  Hf5      1.0000 0.62536  0.02127  0.65070  Biso   1.000  Hf
  Hf6      1.0000 0.63173  0.52720  0.14943  Biso   1.000  Hf
  Hf7      1.0000 0.62828  0.52252  0.64735  Biso   1.000  Hf
  Hf8      1.0000 0.12590  0.22805  0.40169  Biso   1.000  Hf
  Hf9      1.0000 0.13007  0.24087  0.87783  Biso   1.000  Hf
  Hf10     1.0000 0.12940  0.72599  0.39545  Biso   1.000  Hf
  Hf11     1.0000 0.12733  0.72504  0.89761  Biso   1.000  Hf
  Hf12     1.0000 0.62718  0.22868  0.39853  Biso   1.000  Hf
  Hf13     1.0000 0.62716  0.22805  0.89272  Biso   1.000  Hf
  Hf14     1.0000 0.62901  0.72898  0.40113  Biso   1.000  Hf
  Hf15     1.0000 0.62597  0.73082  0.89573  Biso   1.000  Hf
  La2      1.0000 0.36655  0.25658  0.10981  Biso   1.000  La
  Hf16     1.0000 0.35291  0.27240  0.60069  Biso   1.000  Hf
  Hf17     1.0000 0.36541  0.76817  0.10294  Biso   1.000  Hf
  Hf18     1.0000 0.35057  0.77178  0.60476  Biso   1.000  Hf
  Hf19     1.0000 0.83424  0.27783  0.10806  Biso   1.000  Hf
  Hf20     1.0000 0.84975  0.27188  0.60704  Biso   1.000  Hf
  Hf21     1.0000 0.85864  0.76285  0.10277  Biso   1.000  Hf
  Hf22     1.0000 0.85209  0.77178  0.60672  Biso   1.000  Hf
  Hf23     1.0000 0.35227  0.48188  0.35455  Biso   1.000  Hf
  Hf24     1.0000 0.35219  0.47874  0.85399  Biso   1.000  Hf
  Hf25     1.0000 0.35325  0.97959  0.35740  Biso   1.000  Hf
  Hf26     1.0000 0.34644  0.97642  0.85342  Biso   1.000  Hf
  Hf27     1.0000 0.85414  0.47819  0.35630  Biso   1.000  Hf
  Hf28     1.0000 0.85058  0.47744  0.85743  Biso   1.000  Hf
  Hf29     1.0000 0.84559  0.98030  0.36249  Biso   1.000  Hf
  Hf30     1.0000 0.85315  0.97755  0.85806  Biso   1.000  Hf
  Hf31     1.0000 0.02112  0.16445  0.58256  Biso   1.000  Hf
  Hf32     1.0000 0.03587  0.66430  0.07761  Biso   1.000  Hf
  Hf33     1.0000 0.02230  0.66326  0.57715  Biso   1.000  Hf
  Hf34     1.0000 0.57487  0.17602  0.07549  Biso   1.000  Hf
  Hf35     1.0000 0.52389  0.16817  0.58046  Biso   1.000  Hf
  Hf36     1.0000 0.54305  0.67879  0.08028  Biso   1.000  Hf
  Hf37     1.0000 0.52572  0.67117  0.58484  Biso   1.000  Hf
  Hf38     1.0000 0.00260  0.10131  0.33220  Biso   1.000  Hf
  Hf39     1.0000 0.02382  0.08412  0.83339  Biso   1.000  Hf
  Hf40     1.0000 0.02393  0.58555  0.32387  Biso   1.000  Hf
  Hf41     1.0000 0.02268  0.57976  0.83043  Biso   1.000  Hf
  Hf42     1.0000 0.52589  0.08300  0.32884  Biso   1.000  Hf
  Hf43     1.0000 0.51898  0.08182  0.83405  Biso   1.000  Hf
  Hf44     1.0000 0.52864  0.58464  0.33433  Biso   1.000  Hf
  Hf45     1.0000 0.52415  0.58269  0.83111  Biso   1.000  Hf
  Hf46     1.0000 0.45903  0.43869  0.17262  Biso   1.000  Hf
  Hf47     1.0000 0.45471  0.42250  0.66667  Biso   1.000  Hf
  Hf48     1.0000 0.45694  0.93036  0.16480  Biso   1.000  Hf
  Hf49     1.0000 0.45210  0.91956  0.67282  Biso   1.000  Hf
  Hf50     1.0000 0.96201  0.39939  0.17730  Biso   1.000  Hf
  Hf51     1.0000 0.95965  0.40878  0.68265  Biso   1.000  Hf
  Hf52     1.0000 0.92673  0.91949  0.17814  Biso   1.000  Hf
  Hf53     1.0000 0.95639  0.91426  0.67655  Biso   1.000  Hf
  Hf54     1.0000 0.45391  0.32995  0.41662  Biso   1.000  Hf
  Hf55     1.0000 0.45917  0.33232  0.90684  Biso   1.000  Hf
  Hf56     1.0000 0.45535  0.83117  0.42491  Biso   1.000  Hf
  Hf57     1.0000 0.45539  0.83364  0.92090  Biso   1.000  Hf
  Hf58     1.0000 0.95614  0.34209  0.43393  Biso   1.000  Hf
  Hf59     1.0000 0.94727  0.32479  0.93897  Biso   1.000  Hf
  Hf60     1.0000 0.95881  0.83773  0.42333  Biso   1.000  Hf
  Hf61     1.0000 0.95598  0.83424  0.92941  Biso   1.000  Hf
  Hf62     1.0000 0.25442  0.11991  0.26453  Biso   1.000  Hf
  Hf63     1.0000 0.26498  0.13109  0.73457  Biso   1.000  Hf
  Hf64     1.0000 0.26868  0.62513  0.23867  Biso   1.000  Hf
  Hf65     1.0000 0.26309  0.62847  0.74060  Biso   1.000  Hf
  Hf66     1.0000 0.76599  0.13282  0.24521  Biso   1.000  Hf
  Hf67     1.0000 0.76246  0.12757  0.74425  Biso   1.000  Hf
  Hf68     1.0000 0.77165  0.62890  0.24209  Biso   1.000  Hf
  Hf69     1.0000 0.76746  0.62806  0.74222  Biso   1.000  Hf
  Hf70     1.0000 0.26470  0.12089  0.49630  Biso   1.000  Hf
  Hf71     1.0000 0.23542  0.12069  0.97566  Biso   1.000  Hf
  Hf72     1.0000 0.26556  0.62315  0.49056  Biso   1.000  Hf
  Hf73     1.0000 0.26241  0.61639  0.99325  Biso   1.000  Hf
  Hf74     1.0000 0.76041  0.12237  0.49709  Biso   1.000  Hf
  Hf75     1.0000 0.78196  0.11843  0.99432  Biso   1.000  Hf
  Hf76     1.0000 0.76723  0.62104  0.49265  Biso   1.000  Hf
  Hf77     1.0000 0.75962  0.62042  0.99076  Biso   1.000  Hf
  Hf78     1.0000 0.19603  0.38088  0.00130  Biso   1.000  Hf
  Hf79     1.0000 0.21469  0.38075  0.51169  Biso   1.000  Hf
  Hf80     1.0000 0.22097  0.86417  0.00069  Biso   1.000  Hf
  Hf81     1.0000 0.21317  0.87903  0.51130  Biso   1.000  Hf
  Hf82     1.0000 0.72306  0.38556  0.00837  Biso   1.000  Hf
  Hf83     1.0000 0.71284  0.37930  0.51157  Biso   1.000  Hf
  Hf84     1.0000 0.72934  0.87755  0.00855  Biso   1.000  Hf
  Hf85     1.0000 0.71450  0.87919  0.51677  Biso   1.000  Hf
  Hf86     1.0000 0.20856  0.37588  0.26945  Biso   1.000  Hf
  Hf87     1.0000 0.21820  0.37402  0.75266  Biso   1.000  Hf
  Hf88     1.0000 0.22894  0.85879  0.26237  Biso   1.000  Hf
  Hf89     1.0000 0.21135  0.87007  0.75961  Biso   1.000  Hf
  Hf90     1.0000 0.71232  0.37506  0.26194  Biso   1.000  Hf
  Hf91     1.0000 0.71665  0.37237  0.76075  Biso   1.000  Hf
  Hf92     1.0000 0.70300  0.87022  0.26987  Biso   1.000  Hf
  Hf93     1.0000 0.71438  0.87144  0.76259  Biso   1.000  Hf
