data_image0
_cell_length_a       10.2172
_cell_length_b       10.3326
_cell_length_c       10.5061
_cell_angle_alpha    90
_cell_angle_beta     80
_cell_angle_gamma    90

_symmetry_space_group_name_H-M    "P 1"
_symmetry_int_tables_number       1

loop_
  _symmetry_equiv_pos_as_xyz
  'x, y, z'

loop_
  _atom_site_label
  _atom_site_occupancy
  _atom_site_fract_x
  _atom_site_fract_y
  _atom_site_fract_z
  _atom_site_thermal_displace_type
  _atom_site_B_iso_or_equiv
  _atom_site_type_symbol
  La1      1.0000 0.12943  0.01061  0.14043  Biso   1.000  La
  Hf1      1.0000 0.13158  0.02080  0.64945  Biso   1.000  Hf
  Hf2      1.0000 0.14299  0.52030  0.13753  Biso   1.000  Hf
  Hf3      1.0000 0.12650  0.52102  0.64541  Biso   1.000  Hf
  Hf4      1.0000 0.64049  0.02195  0.14821  Biso   1.000  Hf
  Hf5      1.0000 0.63003  0.02327  0.64876  Biso   1.000  Hf
  Hf6      1.0000 0.63198  0.51814  0.14630  Biso   1.000  Hf
  Hf7      1.0000 0.62492  0.52100  0.64902  Biso   1.000  Hf
  Hf8      1.0000 0.13453  0.22505  0.39964  Biso   1.000  Hf
  Hf9      1.0000 0.12529  0.23189  0.89474  Biso   1.000  Hf
  Hf10     1.0000 0.13193  0.73371  0.40028  Biso   1.000  Hf
  Hf11     1.0000 0.12541  0.72741  0.89499  Biso   1.000  Hf
  Hf12     1.0000 0.63200  0.23288  0.39732  Biso   1.000  Hf
  Hf13     1.0000 0.62792  0.22940  0.89871  Biso   1.000  Hf
  Hf14     1.0000 0.62006  0.73035  0.39900  Biso   1.000  Hf
  Hf15     1.0000 0.62686  0.72815  0.89616  Biso   1.000  Hf
  Hf16     1.0000 0.35871  0.26701  0.10361  Biso   1.000  Hf
  Hf17     1.0000 0.35085  0.27040  0.60420  Biso   1.000  Hf
  Hf18     1.0000 0.36429  0.76951  0.10188  Biso   1.000  Hf
  Hf19     1.0000 0.34552  0.77165  0.60671  Biso   1.000  Hf
  Hf20     1.0000 0.85621  0.27484  0.10131  Biso   1.000  Hf
  Hf21     1.0000 0.85347  0.26790  0.60818  Biso   1.000  Hf
  Hf22     1.0000 0.85245  0.76618  0.10063  Biso   1.000  Hf
  Hf23     1.0000 0.84698  0.77239  0.60789  Biso   1.000  Hf
  Hf24     1.0000 0.35022  0.47792  0.35271  Biso   1.000  Hf
  Hf25     1.0000 0.34875  0.47652  0.85410  Biso   1.000  Hf
  Hf26     1.0000 0.35237  0.98174  0.35461  Biso   1.000  Hf
  Hf27     1.0000 0.34743  0.97882  0.85383  Biso   1.000  Hf
  La2      1.0000 0.86128  0.48927  0.36050  Biso   1.000  La
  Hf28     1.0000 0.84721  0.47900  0.85342  Biso   1.000  Hf
  Hf29     1.0000 0.84131  0.97959  0.36345  Biso   1.000  Hf
  Hf30     1.0000 0.84587  0.97877  0.85748  Biso   1.000  Hf
  Hf31     1.0000 0.03302  0.18906  0.07537  Biso   1.000  Hf
  Hf32     1.0000 0.03201  0.17279  0.59371  Biso   1.000  Hf
  Hf33     1.0000 0.03393  0.67422  0.08129  Biso   1.000  Hf
  Hf34     1.0000 0.02142  0.66885  0.58096  Biso   1.000  Hf
  Hf35     1.0000 0.53465  0.16708  0.07871  Biso   1.000  Hf
  Hf36     1.0000 0.52263  0.16498  0.57988  Biso   1.000  Hf
  Hf37     1.0000 0.53367  0.66542  0.07481  Biso   1.000  Hf
  Hf38     1.0000 0.51186  0.66219  0.58121  Biso   1.000  Hf
  Hf39     1.0000 0.02451  0.07489  0.35120  Biso   1.000  Hf
  Hf40     1.0000 0.02866  0.07513  0.83843  Biso   1.000  Hf
  Hf41     1.0000 0.06216  0.57977  0.32289  Biso   1.000  Hf
  Hf42     1.0000 0.02223  0.57897  0.83044  Biso   1.000  Hf
  Hf43     1.0000 0.53128  0.08497  0.32962  Biso   1.000  Hf
  Hf44     1.0000 0.52578  0.08448  0.82929  Biso   1.000  Hf
  Hf45     1.0000 0.52390  0.58082  0.33002  Biso   1.000  Hf
  Hf46     1.0000 0.52008  0.58402  0.82942  Biso   1.000  Hf
  Hf47     1.0000 0.45943  0.41492  0.17132  Biso   1.000  Hf
  Hf48     1.0000 0.45302  0.41532  0.67356  Biso   1.000  Hf
  Hf49     1.0000 0.46041  0.91904  0.17091  Biso   1.000  Hf
  Hf50     1.0000 0.45232  0.91574  0.67347  Biso   1.000  Hf
  Hf51     1.0000 0.96618  0.42503  0.14971  Biso   1.000  Hf
  Hf52     1.0000 0.95013  0.42465  0.66449  Biso   1.000  Hf
  Hf53     1.0000 0.92207  0.92019  0.17802  Biso   1.000  Hf
  Hf54     1.0000 0.95018  0.92080  0.67247  Biso   1.000  Hf
  Hf55     1.0000 0.45606  0.33279  0.42221  Biso   1.000  Hf
  Hf56     1.0000 0.45615  0.33482  0.92299  Biso   1.000  Hf
  Hf57     1.0000 0.45065  0.83445  0.42614  Biso   1.000  Hf
  Hf58     1.0000 0.46053  0.83764  0.92166  Biso   1.000  Hf
  Hf59     1.0000 0.95771  0.31082  0.42564  Biso   1.000  Hf
  Hf60     1.0000 0.94675  0.32697  0.90924  Biso   1.000  Hf
  Hf61     1.0000 0.95040  0.82570  0.41964  Biso   1.000  Hf
  Hf62     1.0000 0.95096  0.83093  0.92189  Biso   1.000  Hf
  Hf63     1.0000 0.27943  0.13237  0.24785  Biso   1.000  Hf
  Hf64     1.0000 0.26641  0.12922  0.74063  Biso   1.000  Hf
  Hf65     1.0000 0.28675  0.62286  0.23014  Biso   1.000  Hf
  Hf66     1.0000 0.26093  0.62862  0.74078  Biso   1.000  Hf
  Hf67     1.0000 0.77335  0.13186  0.24450  Biso   1.000  Hf
  Hf68     1.0000 0.76738  0.12750  0.74464  Biso   1.000  Hf
  Hf69     1.0000 0.75484  0.64067  0.23690  Biso   1.000  Hf
  Hf70     1.0000 0.76291  0.62896  0.74343  Biso   1.000  Hf
  Hf71     1.0000 0.26946  0.11942  0.49413  Biso   1.000  Hf
  Hf72     1.0000 0.27187  0.12661  0.98169  Biso   1.000  Hf
  Hf73     1.0000 0.26366  0.62190  0.49086  Biso   1.000  Hf
  Hf74     1.0000 0.26182  0.61772  0.98760  Biso   1.000  Hf
  Hf75     1.0000 0.76386  0.12260  0.49630  Biso   1.000  Hf
  Hf76     1.0000 0.76399  0.12059  0.99364  Biso   1.000  Hf
  Hf77     1.0000 0.74772  0.63517  0.50565  Biso   1.000  Hf
  Hf78     1.0000 0.76099  0.61854  0.99007  Biso   1.000  Hf
  Hf79     1.0000 0.22688  0.37732  0.00466  Biso   1.000  Hf
  Hf80     1.0000 0.21475  0.37920  0.50930  Biso   1.000  Hf
  Hf81     1.0000 0.22467  0.86467  0.99718  Biso   1.000  Hf
  Hf82     1.0000 0.21138  0.88126  0.51280  Biso   1.000  Hf
  Hf83     1.0000 0.72126  0.38046  0.00680  Biso   1.000  Hf
  Hf84     1.0000 0.70689  0.37320  0.52122  Biso   1.000  Hf
  Hf85     1.0000 0.72069  0.87795  0.01004  Biso   1.000  Hf
  Hf86     1.0000 0.71053  0.88203  0.51526  Biso   1.000  Hf
  Hf87     1.0000 0.21733  0.36802  0.25646  Biso   1.000  Hf
  Hf88     1.0000 0.21139  0.37223  0.75827  Biso   1.000  Hf
  Hf89     1.0000 0.22951  0.85921  0.26398  Biso   1.000  Hf
  Hf90     1.0000 0.20948  0.87079  0.75946  Biso   1.000  Hf
  Hf91     1.0000 0.71128  0.36756  0.25307  Biso   1.000  Hf
  Hf92     1.0000 0.71237  0.37057  0.76226  Biso   1.000  Hf
  Hf93     1.0000 0.69755  0.87705  0.27081  Biso   1.000  Hf
  Hf94     1.0000 0.71144  0.87113  0.76210  Biso   1.000  Hf
