data_image0
_cell_length_a       10.1832
_cell_length_b       10.3353
_cell_length_c       10.4879
_cell_angle_alpha    90
_cell_angle_beta     80
_cell_angle_gamma    90

_symmetry_space_group_name_H-M    "P 1"
_symmetry_int_tables_number       1

loop_
  _symmetry_equiv_pos_as_xyz
  'x, y, z'

loop_
  _atom_site_label
  _atom_site_occupancy
  _atom_site_fract_x
  _atom_site_fract_y
  _atom_site_fract_z
  _atom_site_thermal_displace_type
  _atom_site_B_iso_or_equiv
  _atom_site_type_symbol
  Hf1      1.0000 0.14385  0.99677  0.15721  Biso   1.000  Hf
  Hf2      1.0000 0.13075  0.02162  0.64796  Biso   1.000  Hf
  Hf3      1.0000 0.14313  0.52283  0.14710  Biso   1.000  Hf
  Hf4      1.0000 0.13309  0.52329  0.64561  Biso   1.000  Hf
  Hf5      1.0000 0.63459  0.01306  0.14515  Biso   1.000  Hf
  Hf6      1.0000 0.62944  0.02283  0.65059  Biso   1.000  Hf
  Hf7      1.0000 0.64440  0.51637  0.14732  Biso   1.000  Hf
  Hf8      1.0000 0.63547  0.52260  0.64744  Biso   1.000  Hf
  Hf9      1.0000 0.12997  0.23141  0.39805  Biso   1.000  Hf
  Hf10     1.0000 0.13770  0.23997  0.87641  Biso   1.000  Hf
  Hf11     1.0000 0.13680  0.72748  0.40003  Biso   1.000  Hf
  Hf12     1.0000 0.13400  0.72640  0.89811  Biso   1.000  Hf
  Hf13     1.0000 0.63141  0.22845  0.39754  Biso   1.000  Hf
  Hf14     1.0000 0.63648  0.22950  0.89638  Biso   1.000  Hf
  Hf15     1.0000 0.63751  0.72833  0.39836  Biso   1.000  Hf
  Hf16     1.0000 0.63632  0.72733  0.89734  Biso   1.000  Hf
  La1      1.0000 0.36194  0.25904  0.10861  Biso   1.000  La
  Hf17     1.0000 0.35828  0.27380  0.60063  Biso   1.000  Hf
  Hf18     1.0000 0.37142  0.76421  0.10297  Biso   1.000  Hf
  Hf19     1.0000 0.35931  0.77051  0.60683  Biso   1.000  Hf
  La2      1.0000 0.87976  0.25237  0.11624  Biso   1.000  La
  Hf20     1.0000 0.85315  0.27342  0.60484  Biso   1.000  Hf
  Hf21     1.0000 0.86445  0.76646  0.10401  Biso   1.000  Hf
  Hf22     1.0000 0.85755  0.77410  0.60543  Biso   1.000  Hf
  Hf23     1.0000 0.36119  0.48278  0.35481  Biso   1.000  Hf
  Hf24     1.0000 0.35916  0.47917  0.85284  Biso   1.000  Hf
  Hf25     1.0000 0.36084  0.97902  0.36072  Biso   1.000  Hf
  Hf26     1.0000 0.35626  0.97478  0.85529  Biso   1.000  Hf
  Hf27     1.0000 0.85997  0.48353  0.35642  Biso   1.000  Hf
  Hf28     1.0000 0.85608  0.47689  0.85625  Biso   1.000  Hf
  Hf29     1.0000 0.85623  0.98206  0.35575  Biso   1.000  Hf
  Hf30     1.0000 0.86031  0.97479  0.85447  Biso   1.000  Hf
  Hf31     1.0000 0.02395  0.16106  0.57245  Biso   1.000  Hf
  Hf32     1.0000 0.04459  0.67506  0.08193  Biso   1.000  Hf
  Hf33     1.0000 0.03061  0.67048  0.58117  Biso   1.000  Hf
  Hf34     1.0000 0.56231  0.17024  0.07685  Biso   1.000  Hf
  Hf35     1.0000 0.52924  0.16874  0.58111  Biso   1.000  Hf
  Hf36     1.0000 0.54668  0.67076  0.08053  Biso   1.000  Hf
  Hf37     1.0000 0.53499  0.67341  0.58465  Biso   1.000  Hf
  Hf38     1.0000 0.00944  0.11279  0.29466  Biso   1.000  Hf
  Hf39     1.0000 0.02574  0.08575  0.82890  Biso   1.000  Hf
  Hf40     1.0000 0.03417  0.58783  0.33345  Biso   1.000  Hf
  Hf41     1.0000 0.03186  0.58012  0.83124  Biso   1.000  Hf
  Hf42     1.0000 0.51918  0.08543  0.33008  Biso   1.000  Hf
  Hf43     1.0000 0.52049  0.08167  0.83640  Biso   1.000  Hf
  Hf44     1.0000 0.53733  0.58187  0.33663  Biso   1.000  Hf
  Hf45     1.0000 0.53223  0.58115  0.83168  Biso   1.000  Hf
  Hf46     1.0000 0.46556  0.43526  0.17402  Biso   1.000  Hf
  Hf47     1.0000 0.46067  0.42459  0.66439  Biso   1.000  Hf
  Hf48     1.0000 0.45986  0.92236  0.16995  Biso   1.000  Hf
  Hf49     1.0000 0.45965  0.91936  0.67570  Biso   1.000  Hf
  Hf50     1.0000 0.96758  0.43503  0.17489  Biso   1.000  Hf
  Hf51     1.0000 0.96202  0.41737  0.66995  Biso   1.000  Hf
  Hf52     1.0000 0.96049  0.92724  0.16411  Biso   1.000  Hf
  Hf53     1.0000 0.96409  0.91760  0.67103  Biso   1.000  Hf
  Hf54     1.0000 0.45787  0.32943  0.41800  Biso   1.000  Hf
  Hf55     1.0000 0.46222  0.33043  0.90567  Biso   1.000  Hf
  Hf56     1.0000 0.46389  0.83041  0.42329  Biso   1.000  Hf
  Hf57     1.0000 0.46138  0.82973  0.92073  Biso   1.000  Hf
  Hf58     1.0000 0.95824  0.33574  0.42373  Biso   1.000  Hf
  Hf59     1.0000 0.96415  0.32822  0.91069  Biso   1.000  Hf
  Hf60     1.0000 0.96849  0.84226  0.42089  Biso   1.000  Hf
  Hf61     1.0000 0.96087  0.82981  0.92235  Biso   1.000  Hf
  Hf62     1.0000 0.25141  0.11081  0.26006  Biso   1.000  Hf
  Hf63     1.0000 0.27189  0.13012  0.74076  Biso   1.000  Hf
  Hf64     1.0000 0.27827  0.63026  0.24313  Biso   1.000  Hf
  Hf65     1.0000 0.27153  0.62999  0.74165  Biso   1.000  Hf
  Hf66     1.0000 0.75141  0.11465  0.25406  Biso   1.000  Hf
  Hf67     1.0000 0.76523  0.12954  0.74106  Biso   1.000  Hf
  Hf68     1.0000 0.77716  0.62917  0.24189  Biso   1.000  Hf
  Hf69     1.0000 0.77394  0.63055  0.74223  Biso   1.000  Hf
  Hf70     1.0000 0.26810  0.12296  0.49637  Biso   1.000  Hf
  Hf71     1.0000 0.21663  0.11506  0.00266  Biso   1.000  Hf
  Hf72     1.0000 0.27348  0.62295  0.49354  Biso   1.000  Hf
  Hf73     1.0000 0.27334  0.62004  0.99249  Biso   1.000  Hf
  Hf74     1.0000 0.76950  0.12272  0.49338  Biso   1.000  Hf
  Hf75     1.0000 0.77006  0.10671  0.98683  Biso   1.000  Hf
  Hf76     1.0000 0.77492  0.62453  0.49284  Biso   1.000  Hf
  Hf77     1.0000 0.77377  0.62043  0.99231  Biso   1.000  Hf
  Hf78     1.0000 0.20220  0.38467  0.99952  Biso   1.000  Hf
  Hf79     1.0000 0.21813  0.38019  0.50988  Biso   1.000  Hf
  Hf80     1.0000 0.23638  0.87255  0.00974  Biso   1.000  Hf
  Hf81     1.0000 0.22304  0.88020  0.51342  Biso   1.000  Hf
  Hf82     1.0000 0.72812  0.38108  0.00445  Biso   1.000  Hf
  Hf83     1.0000 0.71830  0.38063  0.51260  Biso   1.000  Hf
  Hf84     1.0000 0.72992  0.87198  0.01062  Biso   1.000  Hf
  Hf85     1.0000 0.72178  0.88248  0.51264  Biso   1.000  Hf
  Hf86     1.0000 0.21347  0.37743  0.26907  Biso   1.000  Hf
  Hf87     1.0000 0.22513  0.37429  0.75022  Biso   1.000  Hf
  Hf88     1.0000 0.22445  0.86369  0.26140  Biso   1.000  Hf
  Hf89     1.0000 0.21959  0.87117  0.76279  Biso   1.000  Hf
  Hf90     1.0000 0.72045  0.37266  0.26821  Biso   1.000  Hf
  Hf91     1.0000 0.72168  0.37285  0.75888  Biso   1.000  Hf
  Hf92     1.0000 0.72764  0.86680  0.26244  Biso   1.000  Hf
  Hf93     1.0000 0.72114  0.87151  0.76140  Biso   1.000  Hf
