data_image0
_cell_length_a       10.1984
_cell_length_b       10.3544
_cell_length_c       10.4755
_cell_angle_alpha    90
_cell_angle_beta     80
_cell_angle_gamma    90

_symmetry_space_group_name_H-M    "P 1"
_symmetry_int_tables_number       1

loop_
  _symmetry_equiv_pos_as_xyz
  'x, y, z'

loop_
  _atom_site_label
  _atom_site_occupancy
  _atom_site_fract_x
  _atom_site_fract_y
  _atom_site_fract_z
  _atom_site_thermal_displace_type
  _atom_site_B_iso_or_equiv
  _atom_site_type_symbol
  La1      1.0000 0.13797  0.01277  0.13959  Biso   1.000  La
  Hf1      1.0000 0.13340  0.02046  0.64544  Biso   1.000  Hf
  Hf2      1.0000 0.13574  0.52100  0.14478  Biso   1.000  Hf
  Hf3      1.0000 0.13323  0.52008  0.64865  Biso   1.000  Hf
  Hf4      1.0000 0.63807  0.02002  0.14471  Biso   1.000  Hf
  Hf5      1.0000 0.63208  0.02069  0.64970  Biso   1.000  Hf
  Hf6      1.0000 0.63693  0.52006  0.14753  Biso   1.000  Hf
  Hf7      1.0000 0.63134  0.52081  0.64591  Biso   1.000  Hf
  Hf8      1.0000 0.14167  0.23372  0.39908  Biso   1.000  Hf
  Hf9      1.0000 0.12914  0.23126  0.89645  Biso   1.000  Hf
  Hf10     1.0000 0.13668  0.72348  0.39842  Biso   1.000  Hf
  Hf11     1.0000 0.13130  0.72661  0.89519  Biso   1.000  Hf
  Hf12     1.0000 0.62897  0.23305  0.39676  Biso   1.000  Hf
  Hf13     1.0000 0.63240  0.22763  0.89731  Biso   1.000  Hf
  Hf14     1.0000 0.63212  0.72788  0.39739  Biso   1.000  Hf
  Hf15     1.0000 0.63199  0.72871  0.89453  Biso   1.000  Hf
  Hf16     1.0000 0.36118  0.27160  0.10307  Biso   1.000  Hf
  Hf17     1.0000 0.35333  0.26995  0.60725  Biso   1.000  Hf
  Hf18     1.0000 0.36434  0.76643  0.10370  Biso   1.000  Hf
  Hf19     1.0000 0.35295  0.77101  0.60447  Biso   1.000  Hf
  Hf20     1.0000 0.85663  0.27602  0.10203  Biso   1.000  Hf
  Hf21     1.0000 0.85403  0.27204  0.60660  Biso   1.000  Hf
  Hf22     1.0000 0.85164  0.76576  0.10137  Biso   1.000  Hf
  Hf23     1.0000 0.85620  0.76738  0.60533  Biso   1.000  Hf
  Hf24     1.0000 0.35637  0.47942  0.35292  Biso   1.000  Hf
  Hf25     1.0000 0.35401  0.47785  0.85587  Biso   1.000  Hf
  Hf26     1.0000 0.35524  0.97946  0.35574  Biso   1.000  Hf
  Hf27     1.0000 0.35326  0.97797  0.85209  Biso   1.000  Hf
  Hf28     1.0000 0.85759  0.47848  0.35568  Biso   1.000  Hf
  Hf29     1.0000 0.85212  0.47857  0.85312  Biso   1.000  Hf
  La2      1.0000 0.85530  0.98671  0.36084  Biso   1.000  La
  Hf30     1.0000 0.85196  0.97819  0.85635  Biso   1.000  Hf
  Hf31     1.0000 0.03374  0.19153  0.07963  Biso   1.000  Hf
  Hf32     1.0000 0.03105  0.17525  0.58893  Biso   1.000  Hf
  Hf33     1.0000 0.03588  0.67659  0.08364  Biso   1.000  Hf
  Hf34     1.0000 0.03357  0.67015  0.58961  Biso   1.000  Hf
  Hf35     1.0000 0.53486  0.16806  0.07739  Biso   1.000  Hf
  Hf36     1.0000 0.52161  0.16461  0.58177  Biso   1.000  Hf
  Hf37     1.0000 0.53655  0.66751  0.07848  Biso   1.000  Hf
  Hf38     1.0000 0.52487  0.66434  0.58066  Biso   1.000  Hf
  Hf39     1.0000 0.06378  0.06823  0.35705  Biso   1.000  Hf
  Hf40     1.0000 0.03122  0.07565  0.83579  Biso   1.000  Hf
  Hf41     1.0000 0.03641  0.57229  0.33389  Biso   1.000  Hf
  Hf42     1.0000 0.02881  0.57489  0.83503  Biso   1.000  Hf
  Hf43     1.0000 0.53434  0.07764  0.33294  Biso   1.000  Hf
  Hf44     1.0000 0.52922  0.08184  0.82982  Biso   1.000  Hf
  Hf45     1.0000 0.52894  0.58259  0.32904  Biso   1.000  Hf
  Hf46     1.0000 0.52667  0.58211  0.82996  Biso   1.000  Hf
  Hf47     1.0000 0.46437  0.41690  0.17141  Biso   1.000  Hf
  Hf48     1.0000 0.45869  0.41653  0.67183  Biso   1.000  Hf
  Hf49     1.0000 0.45899  0.92183  0.16752  Biso   1.000  Hf
  Hf50     1.0000 0.45611  0.91681  0.67197  Biso   1.000  Hf
  Hf51     1.0000 0.95690  0.42723  0.16655  Biso   1.000  Hf
  Hf52     1.0000 0.95654  0.42374  0.66677  Biso   1.000  Hf
  Hf53     1.0000 0.92946  0.93130  0.14335  Biso   1.000  Hf
  Hf54     1.0000 0.95412  0.92300  0.66600  Biso   1.000  Hf
  Hf55     1.0000 0.45677  0.33199  0.42196  Biso   1.000  Hf
  Hf56     1.0000 0.46046  0.33430  0.92113  Biso   1.000  Hf
  Hf57     1.0000 0.45845  0.83142  0.42307  Biso   1.000  Hf
  Hf58     1.0000 0.46371  0.83404  0.92001  Biso   1.000  Hf
  Hf59     1.0000 0.95744  0.32293  0.41684  Biso   1.000  Hf
  Hf60     1.0000 0.95176  0.32849  0.91217  Biso   1.000  Hf
  Hf61     1.0000 0.95959  0.80800  0.42084  Biso   1.000  Hf
  Hf62     1.0000 0.95427  0.82338  0.91284  Biso   1.000  Hf
  Hf63     1.0000 0.29023  0.13877  0.24694  Biso   1.000  Hf
  Hf64     1.0000 0.26722  0.12834  0.74080  Biso   1.000  Hf
  Hf65     1.0000 0.27478  0.62244  0.23819  Biso   1.000  Hf
  Hf66     1.0000 0.26859  0.62864  0.74241  Biso   1.000  Hf
  Hf67     1.0000 0.76023  0.14385  0.23616  Biso   1.000  Hf
  Hf68     1.0000 0.77120  0.12817  0.74424  Biso   1.000  Hf
  Hf69     1.0000 0.77310  0.62705  0.24266  Biso   1.000  Hf
  Hf70     1.0000 0.76800  0.62751  0.74064  Biso   1.000  Hf
  Hf71     1.0000 0.27277  0.12123  0.49541  Biso   1.000  Hf
  Hf72     1.0000 0.27694  0.12749  0.98068  Biso   1.000  Hf
  Hf73     1.0000 0.27193  0.61875  0.49239  Biso   1.000  Hf
  Hf74     1.0000 0.26700  0.61708  0.99175  Biso   1.000  Hf
  Hf75     1.0000 0.75497  0.13458  0.50570  Biso   1.000  Hf
  Hf76     1.0000 0.76763  0.11997  0.99073  Biso   1.000  Hf
  Hf77     1.0000 0.76898  0.61934  0.49225  Biso   1.000  Hf
  Hf78     1.0000 0.76623  0.61844  0.99021  Biso   1.000  Hf
  Hf79     1.0000 0.22432  0.38015  0.00820  Biso   1.000  Hf
  Hf80     1.0000 0.21912  0.38021  0.51156  Biso   1.000  Hf
  Hf81     1.0000 0.23039  0.86407  0.99610  Biso   1.000  Hf
  Hf82     1.0000 0.21771  0.87868  0.51106  Biso   1.000  Hf
  Hf83     1.0000 0.72137  0.38075  0.00805  Biso   1.000  Hf
  Hf84     1.0000 0.71834  0.38158  0.51002  Biso   1.000  Hf
  Hf85     1.0000 0.72052  0.87825  0.00504  Biso   1.000  Hf
  Hf86     1.0000 0.70840  0.87117  0.52111  Biso   1.000  Hf
  Hf87     1.0000 0.22021  0.37243  0.25780  Biso   1.000  Hf
  Hf88     1.0000 0.21732  0.37115  0.76115  Biso   1.000  Hf
  Hf89     1.0000 0.23308  0.85564  0.26429  Biso   1.000  Hf
  Hf90     1.0000 0.21415  0.87049  0.75755  Biso   1.000  Hf
  Hf91     1.0000 0.71854  0.37705  0.26227  Biso   1.000  Hf
  Hf92     1.0000 0.71674  0.37002  0.75938  Biso   1.000  Hf
  Hf93     1.0000 0.70310  0.86070  0.25350  Biso   1.000  Hf
  Hf94     1.0000 0.71812  0.87034  0.76097  Biso   1.000  Hf
