data_image0
_cell_length_a       10.1088
_cell_length_b       10.3111
_cell_length_c       10.477
_cell_angle_alpha    90
_cell_angle_beta     90
_cell_angle_gamma    90

_symmetry_space_group_name_H-M    "P 1"
_symmetry_int_tables_number       1

loop_
  _symmetry_equiv_pos_as_xyz
  'x, y, z'

loop_
  _atom_site_label
  _atom_site_occupancy
  _atom_site_fract_x
  _atom_site_fract_y
  _atom_site_fract_z
  _atom_site_thermal_displace_type
  _atom_site_B_iso_or_equiv
  _atom_site_type_symbol
  Hf1      1.0000 0.11964  0.00132  0.15196  Biso   1.000  Hf
  Hf2      1.0000 0.13714  0.02489  0.67781  Biso   1.000  Hf
  Hf3      1.0000 0.14014  0.52377  0.16965  Biso   1.000  Hf
  Hf4      1.0000 0.14103  0.52393  0.66938  Biso   1.000  Hf
  La1      1.0000 0.12926  0.23993  0.41420  Biso   1.000  La
  Hf5      1.0000 0.14010  0.23229  0.92753  Biso   1.000  Hf
  Hf6      1.0000 0.14327  0.73179  0.41950  Biso   1.000  Hf
  Hf7      1.0000 0.14063  0.72982  0.91663  Biso   1.000  Hf
  Hf8      1.0000 0.37648  0.28381  0.16116  Biso   1.000  Hf
  Hf9      1.0000 0.36323  0.27501  0.67526  Biso   1.000  Hf
  Hf10     1.0000 0.36561  0.76628  0.16791  Biso   1.000  Hf
  Hf11     1.0000 0.36315  0.77699  0.66763  Biso   1.000  Hf
  Hf12     1.0000 0.36689  0.48269  0.42136  Biso   1.000  Hf
  Hf13     1.0000 0.36214  0.48450  0.91514  Biso   1.000  Hf
  La2      1.0000 0.36428  0.99458  0.41086  Biso   1.000  La
  Hf14     1.0000 0.36828  0.97984  0.92343  Biso   1.000  Hf
  Hf15     1.0000 0.64002  0.02013  0.08140  Biso   1.000  Hf
  Hf16     1.0000 0.64221  0.02041  0.58308  Biso   1.000  Hf
  Hf17     1.0000 0.64455  0.52348  0.07400  Biso   1.000  Hf
  Hf18     1.0000 0.63998  0.52151  0.57909  Biso   1.000  Hf
  Hf19     1.0000 0.64718  0.23182  0.33204  Biso   1.000  Hf
  Hf20     1.0000 0.63826  0.22958  0.83142  Biso   1.000  Hf
  Hf21     1.0000 0.64048  0.72957  0.32767  Biso   1.000  Hf
  Hf22     1.0000 0.63956  0.73067  0.82429  Biso   1.000  Hf
  Hf23     1.0000 0.86177  0.27195  0.07870  Biso   1.000  Hf
  Hf24     1.0000 0.85721  0.27155  0.58621  Biso   1.000  Hf
  Hf25     1.0000 0.85860  0.76599  0.07315  Biso   1.000  Hf
  Hf26     1.0000 0.86612  0.77150  0.57826  Biso   1.000  Hf
  Hf27     1.0000 0.86012  0.48529  0.32791  Biso   1.000  Hf
  Hf28     1.0000 0.86528  0.47969  0.82629  Biso   1.000  Hf
  Hf29     1.0000 0.86433  0.97785  0.32988  Biso   1.000  Hf
  Hf30     1.0000 0.86567  0.97916  0.83012  Biso   1.000  Hf
  Hf31     1.0000 0.03259  0.16853  0.08689  Biso   1.000  Hf
  Hf32     1.0000 0.02239  0.16571  0.60013  Biso   1.000  Hf
  Hf33     1.0000 0.03486  0.66908  0.08228  Biso   1.000  Hf
  Hf34     1.0000 0.03619  0.66610  0.58124  Biso   1.000  Hf
  Hf35     1.0000 0.05115  0.05638  0.32346  Biso   1.000  Hf
  Hf36     1.0000 0.03558  0.07936  0.84571  Biso   1.000  Hf
  Hf37     1.0000 0.03699  0.58311  0.33260  Biso   1.000  Hf
  Hf38     1.0000 0.03626  0.58384  0.83389  Biso   1.000  Hf
  Hf39     1.0000 0.47315  0.42045  0.07879  Biso   1.000  Hf
  Hf40     1.0000 0.47057  0.41732  0.58610  Biso   1.000  Hf
  Hf41     1.0000 0.46965  0.91669  0.08779  Biso   1.000  Hf
  Hf42     1.0000 0.47676  0.91605  0.58893  Biso   1.000  Hf
  Hf43     1.0000 0.46246  0.32024  0.33866  Biso   1.000  Hf
  Hf44     1.0000 0.46847  0.33594  0.83843  Biso   1.000  Hf
  Hf45     1.0000 0.46743  0.81847  0.33209  Biso   1.000  Hf
  Hf46     1.0000 0.46987  0.83713  0.83480  Biso   1.000  Hf
  Hf47     1.0000 0.27693  0.12805  0.81073  Biso   1.000  Hf
  Hf48     1.0000 0.27798  0.62482  0.29347  Biso   1.000  Hf
  Hf49     1.0000 0.27809  0.62683  0.79134  Biso   1.000  Hf
  Hf50     1.0000 0.27623  0.12449  0.07067  Biso   1.000  Hf
  Hf51     1.0000 0.27314  0.13361  0.56671  Biso   1.000  Hf
  Hf52     1.0000 0.27696  0.62457  0.04186  Biso   1.000  Hf
  Hf53     1.0000 0.28167  0.63211  0.54137  Biso   1.000  Hf
  Hf54     1.0000 0.24403  0.38347  0.27950  Biso   1.000  Hf
  Hf55     1.0000 0.22526  0.37683  0.79441  Biso   1.000  Hf
  Hf56     1.0000 0.21819  0.86684  0.27648  Biso   1.000  Hf
  Hf57     1.0000 0.22912  0.87609  0.79443  Biso   1.000  Hf
  Hf58     1.0000 0.22940  0.37782  0.03888  Biso   1.000  Hf
  Hf59     1.0000 0.23326  0.39015  0.54816  Biso   1.000  Hf
  Hf60     1.0000 0.22902  0.87203  0.03598  Biso   1.000  Hf
  Hf61     1.0000 0.21913  0.87573  0.54802  Biso   1.000  Hf
  Hf62     1.0000 0.53450  0.16316  0.17150  Biso   1.000  Hf
  Hf63     1.0000 0.53415  0.16672  0.67023  Biso   1.000  Hf
  Hf64     1.0000 0.53849  0.66388  0.16170  Biso   1.000  Hf
  Hf65     1.0000 0.53499  0.66829  0.66417  Biso   1.000  Hf
  Hf66     1.0000 0.55924  0.08546  0.41931  Biso   1.000  Hf
  Hf67     1.0000 0.53338  0.08763  0.92228  Biso   1.000  Hf
  Hf68     1.0000 0.53948  0.57839  0.41228  Biso   1.000  Hf
  Hf69     1.0000 0.53611  0.58608  0.91287  Biso   1.000  Hf
  Hf70     1.0000 0.97156  0.41313  0.17000  Biso   1.000  Hf
  Hf71     1.0000 0.96891  0.41783  0.66755  Biso   1.000  Hf
  Hf72     1.0000 0.95039  0.92102  0.14869  Biso   1.000  Hf
  Hf73     1.0000 0.96925  0.91722  0.66654  Biso   1.000  Hf
  Hf74     1.0000 0.94730  0.34553  0.42634  Biso   1.000  Hf
  Hf75     1.0000 0.96921  0.33487  0.91659  Biso   1.000  Hf
  Hf76     1.0000 0.96709  0.82949  0.41076  Biso   1.000  Hf
  Hf77     1.0000 0.96760  0.82987  0.91131  Biso   1.000  Hf
  Hf78     1.0000 0.77607  0.12516  0.95855  Biso   1.000  Hf
  Hf79     1.0000 0.79303  0.12329  0.45736  Biso   1.000  Hf
  Hf80     1.0000 0.77773  0.62513  0.95077  Biso   1.000  Hf
  Hf81     1.0000 0.77783  0.62463  0.45424  Biso   1.000  Hf
  Hf82     1.0000 0.77908  0.12787  0.20737  Biso   1.000  Hf
  Hf83     1.0000 0.77316  0.12529  0.71106  Biso   1.000  Hf
  Hf84     1.0000 0.77853  0.62725  0.20105  Biso   1.000  Hf
  Hf85     1.0000 0.77867  0.62616  0.70317  Biso   1.000  Hf
  Hf86     1.0000 0.72803  0.37565  0.95492  Biso   1.000  Hf
  Hf87     1.0000 0.71445  0.37352  0.45773  Biso   1.000  Hf
  Hf88     1.0000 0.72538  0.87518  0.95486  Biso   1.000  Hf
  Hf89     1.0000 0.72902  0.87401  0.45624  Biso   1.000  Hf
  Hf90     1.0000 0.72616  0.37929  0.20400  Biso   1.000  Hf
  Hf91     1.0000 0.72471  0.37730  0.70836  Biso   1.000  Hf
  Hf92     1.0000 0.72429  0.87582  0.20787  Biso   1.000  Hf
  Hf93     1.0000 0.73020  0.87471  0.70627  Biso   1.000  Hf
