data_image0
_cell_length_a       10.0969
_cell_length_b       10.285
_cell_length_c       10.4567
_cell_angle_alpha    90
_cell_angle_beta     90
_cell_angle_gamma    90

_symmetry_space_group_name_H-M    "P 1"
_symmetry_int_tables_number       1

loop_
  _symmetry_equiv_pos_as_xyz
  'x, y, z'

loop_
  _atom_site_label
  _atom_site_occupancy
  _atom_site_fract_x
  _atom_site_fract_y
  _atom_site_fract_z
  _atom_site_thermal_displace_type
  _atom_site_B_iso_or_equiv
  _atom_site_type_symbol
  La1      1.0000 0.13097  0.00392  0.15977  Biso   1.000  La
  Hf1      1.0000 0.13126  0.02018  0.66980  Biso   1.000  Hf
  Hf2      1.0000 0.13900  0.52573  0.17275  Biso   1.000  Hf
  Hf3      1.0000 0.13127  0.52471  0.66869  Biso   1.000  Hf
  Hf4      1.0000 0.13236  0.23061  0.41972  Biso   1.000  Hf
  Hf5      1.0000 0.14477  0.24201  0.89895  Biso   1.000  Hf
  Hf6      1.0000 0.13748  0.73138  0.42183  Biso   1.000  Hf
  Hf7      1.0000 0.13087  0.72901  0.91888  Biso   1.000  Hf
  Hf8      1.0000 0.35596  0.27107  0.17013  Biso   1.000  Hf
  Hf9      1.0000 0.36007  0.27193  0.66448  Biso   1.000  Hf
  Hf10     1.0000 0.36908  0.76407  0.17075  Biso   1.000  Hf
  Hf11     1.0000 0.35781  0.77217  0.67080  Biso   1.000  Hf
  Hf12     1.0000 0.35692  0.48118  0.42094  Biso   1.000  Hf
  Hf13     1.0000 0.35673  0.48261  0.92094  Biso   1.000  Hf
  Hf14     1.0000 0.36198  0.98026  0.42083  Biso   1.000  Hf
  Hf15     1.0000 0.35721  0.97855  0.91680  Biso   1.000  Hf
  Hf16     1.0000 0.63237  0.01722  0.08105  Biso   1.000  Hf
  Hf17     1.0000 0.63235  0.02180  0.58170  Biso   1.000  Hf
  Hf18     1.0000 0.64434  0.51450  0.07964  Biso   1.000  Hf
  Hf19     1.0000 0.63536  0.52220  0.57979  Biso   1.000  Hf
  Hf20     1.0000 0.62708  0.23264  0.33293  Biso   1.000  Hf
  Hf21     1.0000 0.63111  0.22999  0.83164  Biso   1.000  Hf
  Hf22     1.0000 0.63766  0.72792  0.33045  Biso   1.000  Hf
  Hf23     1.0000 0.63436  0.72817  0.82868  Biso   1.000  Hf
  La2      1.0000 0.87775  0.25217  0.09667  Biso   1.000  La
  Hf24     1.0000 0.85460  0.27250  0.58001  Biso   1.000  Hf
  Hf25     1.0000 0.85880  0.76922  0.07985  Biso   1.000  Hf
  Hf26     1.0000 0.85822  0.77459  0.58036  Biso   1.000  Hf
  Hf27     1.0000 0.85999  0.48423  0.33267  Biso   1.000  Hf
  Hf28     1.0000 0.85636  0.47540  0.83170  Biso   1.000  Hf
  Hf29     1.0000 0.85050  0.98314  0.33079  Biso   1.000  Hf
  Hf30     1.0000 0.85663  0.97976  0.83269  Biso   1.000  Hf
  Hf31     1.0000 0.02760  0.16738  0.58504  Biso   1.000  Hf
  Hf32     1.0000 0.04280  0.68587  0.09480  Biso   1.000  Hf
  Hf33     1.0000 0.03047  0.67382  0.58739  Biso   1.000  Hf
  Hf34     1.0000 0.00605  0.11010  0.31869  Biso   1.000  Hf
  Hf35     1.0000 0.02947  0.08232  0.85175  Biso   1.000  Hf
  Hf36     1.0000 0.03431  0.58703  0.34053  Biso   1.000  Hf
  Hf37     1.0000 0.02928  0.57910  0.83759  Biso   1.000  Hf
  Hf38     1.0000 0.46713  0.41480  0.08360  Biso   1.000  Hf
  Hf39     1.0000 0.46336  0.41763  0.58327  Biso   1.000  Hf
  Hf40     1.0000 0.46780  0.91667  0.08546  Biso   1.000  Hf
  Hf41     1.0000 0.46402  0.91711  0.58492  Biso   1.000  Hf
  Hf42     1.0000 0.45748  0.33624  0.33385  Biso   1.000  Hf
  Hf43     1.0000 0.45777  0.33353  0.83327  Biso   1.000  Hf
  Hf44     1.0000 0.46941  0.83422  0.33402  Biso   1.000  Hf
  Hf45     1.0000 0.46243  0.83534  0.83224  Biso   1.000  Hf
  Hf46     1.0000 0.27212  0.12803  0.29957  Biso   1.000  Hf
  Hf47     1.0000 0.27009  0.12459  0.78494  Biso   1.000  Hf
  Hf48     1.0000 0.27703  0.62326  0.29534  Biso   1.000  Hf
  Hf49     1.0000 0.26950  0.62624  0.79343  Biso   1.000  Hf
  Hf50     1.0000 0.26835  0.13575  0.03197  Biso   1.000  Hf
  Hf51     1.0000 0.26825  0.12711  0.54273  Biso   1.000  Hf
  Hf52     1.0000 0.27760  0.61853  0.04490  Biso   1.000  Hf
  Hf53     1.0000 0.27165  0.62851  0.54474  Biso   1.000  Hf
  Hf54     1.0000 0.21655  0.37553  0.29224  Biso   1.000  Hf
  Hf55     1.0000 0.22422  0.37900  0.78522  Biso   1.000  Hf
  Hf56     1.0000 0.23203  0.86510  0.29807  Biso   1.000  Hf
  Hf57     1.0000 0.21779  0.87444  0.79116  Biso   1.000  Hf
  Hf58     1.0000 0.22005  0.37498  0.04030  Biso   1.000  Hf
  Hf59     1.0000 0.21886  0.37881  0.54136  Biso   1.000  Hf
  Hf60     1.0000 0.24710  0.85930  0.03140  Biso   1.000  Hf
  Hf61     1.0000 0.22099  0.88016  0.54480  Biso   1.000  Hf
  Hf62     1.0000 0.52212  0.16595  0.16592  Biso   1.000  Hf
  Hf63     1.0000 0.52920  0.16785  0.66585  Biso   1.000  Hf
  Hf64     1.0000 0.53602  0.66002  0.16683  Biso   1.000  Hf
  Hf65     1.0000 0.52879  0.66639  0.66658  Biso   1.000  Hf
  Hf66     1.0000 0.52626  0.08571  0.42000  Biso   1.000  Hf
  Hf67     1.0000 0.51834  0.08719  0.91674  Biso   1.000  Hf
  Hf68     1.0000 0.53049  0.58355  0.41780  Biso   1.000  Hf
  Hf69     1.0000 0.52576  0.58565  0.91667  Biso   1.000  Hf
  Hf70     1.0000 0.96570  0.43618  0.16744  Biso   1.000  Hf
  Hf71     1.0000 0.96098  0.41896  0.66507  Biso   1.000  Hf
  Hf72     1.0000 0.92643  0.94399  0.14582  Biso   1.000  Hf
  Hf73     1.0000 0.96148  0.92208  0.66662  Biso   1.000  Hf
  Hf74     1.0000 0.96130  0.33926  0.41861  Biso   1.000  Hf
  Hf75     1.0000 0.96898  0.32989  0.90989  Biso   1.000  Hf
  Hf76     1.0000 0.96717  0.84127  0.41110  Biso   1.000  Hf
  Hf77     1.0000 0.95782  0.83052  0.91405  Biso   1.000  Hf
  Hf78     1.0000 0.75742  0.11510  0.95386  Biso   1.000  Hf
  Hf79     1.0000 0.76739  0.12621  0.46076  Biso   1.000  Hf
  Hf80     1.0000 0.76899  0.62226  0.95662  Biso   1.000  Hf
  Hf81     1.0000 0.77430  0.62685  0.45796  Biso   1.000  Hf
  Hf82     1.0000 0.74514  0.11608  0.21900  Biso   1.000  Hf
  Hf83     1.0000 0.77035  0.12761  0.70843  Biso   1.000  Hf
  Hf84     1.0000 0.77698  0.62659  0.20616  Biso   1.000  Hf
  Hf85     1.0000 0.77320  0.62734  0.70675  Biso   1.000  Hf
  Hf86     1.0000 0.71518  0.37478  0.95394  Biso   1.000  Hf
  Hf87     1.0000 0.71916  0.37604  0.45903  Biso   1.000  Hf
  Hf88     1.0000 0.71251  0.87115  0.95569  Biso   1.000  Hf
  Hf89     1.0000 0.72180  0.87527  0.45839  Biso   1.000  Hf
  Hf90     1.0000 0.71864  0.37912  0.21478  Biso   1.000  Hf
  Hf91     1.0000 0.71906  0.37658  0.70711  Biso   1.000  Hf
  Hf92     1.0000 0.71514  0.86887  0.20886  Biso   1.000  Hf
  Hf93     1.0000 0.72136  0.87655  0.70732  Biso   1.000  Hf
