data_image0
_cell_length_a       10.026
_cell_length_b       10.4232
_cell_length_c       10.1084
_cell_angle_alpha    90
_cell_angle_beta     90
_cell_angle_gamma    90

_symmetry_space_group_name_H-M    "P 1"
_symmetry_int_tables_number       1

loop_
  _symmetry_equiv_pos_as_xyz
  'x, y, z'

loop_
  _atom_site_label
  _atom_site_occupancy
  _atom_site_fract_x
  _atom_site_fract_y
  _atom_site_fract_z
  _atom_site_thermal_displace_type
  _atom_site_B_iso_or_equiv
  _atom_site_type_symbol
  La1      1.0000 0.11741  0.00544  0.12474  Biso   1.000  La
  Hf1      1.0000 0.13289  0.02184  0.63110  Biso   1.000  Hf
  Hf2      1.0000 0.13638  0.51614  0.13007  Biso   1.000  Hf
  Hf3      1.0000 0.13279  0.52027  0.62350  Biso   1.000  Hf
  Hf4      1.0000 0.63465  0.01996  0.11969  Biso   1.000  Hf
  Hf5      1.0000 0.62982  0.02151  0.62808  Biso   1.000  Hf
  Hf6      1.0000 0.62842  0.50878  0.11862  Biso   1.000  Hf
  Hf7      1.0000 0.63224  0.52071  0.62317  Biso   1.000  Hf
  Hf8      1.0000 0.13500  0.23836  0.37931  Biso   1.000  Hf
  Hf9      1.0000 0.13228  0.24044  0.87268  Biso   1.000  Hf
  Hf10     1.0000 0.13442  0.73689  0.38197  Biso   1.000  Hf
  Hf11     1.0000 0.13728  0.73626  0.87428  Biso   1.000  Hf
  Hf12     1.0000 0.62999  0.23612  0.37385  Biso   1.000  Hf
  Hf13     1.0000 0.63251  0.23930  0.87474  Biso   1.000  Hf
  La2      1.0000 0.62636  0.74596  0.36341  Biso   1.000  La
  Hf14     1.0000 0.62664  0.73715  0.87096  Biso   1.000  Hf
  Hf15     1.0000 0.36194  0.26416  0.12718  Biso   1.000  Hf
  Hf16     1.0000 0.36564  0.26943  0.62620  Biso   1.000  Hf
  Hf17     1.0000 0.36504  0.76318  0.12234  Biso   1.000  Hf
  Hf18     1.0000 0.36133  0.77267  0.62968  Biso   1.000  Hf
  Hf19     1.0000 0.86546  0.27082  0.12599  Biso   1.000  Hf
  Hf20     1.0000 0.86627  0.27439  0.62494  Biso   1.000  Hf
  Hf21     1.0000 0.87941  0.73448  0.09677  Biso   1.000  Hf
  Hf22     1.0000 0.86492  0.76878  0.62240  Biso   1.000  Hf
  Hf23     1.0000 0.36507  0.48300  0.37695  Biso   1.000  Hf
  Hf24     1.0000 0.36502  0.48388  0.87350  Biso   1.000  Hf
  Hf25     1.0000 0.36071  0.98758  0.38124  Biso   1.000  Hf
  Hf26     1.0000 0.36336  0.98966  0.87613  Biso   1.000  Hf
  Hf27     1.0000 0.86401  0.48675  0.37485  Biso   1.000  Hf
  Hf28     1.0000 0.86237  0.48686  0.87177  Biso   1.000  Hf
  Hf29     1.0000 0.86402  0.00064  0.39331  Biso   1.000  Hf
  Hf30     1.0000 0.85757  0.98726  0.87034  Biso   1.000  Hf
  Hf31     1.0000 0.01968  0.18818  0.21372  Biso   1.000  Hf
  Hf32     1.0000 0.03660  0.19313  0.68815  Biso   1.000  Hf
  Hf33     1.0000 0.04383  0.69376  0.19853  Biso   1.000  Hf
  Hf34     1.0000 0.03330  0.68744  0.69817  Biso   1.000  Hf
  Hf35     1.0000 0.53367  0.18081  0.19170  Biso   1.000  Hf
  Hf36     1.0000 0.53349  0.18784  0.69815  Biso   1.000  Hf
  Hf37     1.0000 0.53164  0.67211  0.16695  Biso   1.000  Hf
  Hf38     1.0000 0.53123  0.68732  0.69256  Biso   1.000  Hf
  Hf39     1.0000 0.03891  0.07135  0.44845  Biso   1.000  Hf
  Hf40     1.0000 0.02603  0.08145  0.92317  Biso   1.000  Hf
  Hf41     1.0000 0.03587  0.57000  0.44431  Biso   1.000  Hf
  Hf42     1.0000 0.01367  0.59075  0.96660  Biso   1.000  Hf
  Hf43     1.0000 0.53609  0.06964  0.44877  Biso   1.000  Hf
  Hf44     1.0000 0.53632  0.07145  0.94646  Biso   1.000  Hf
  Hf45     1.0000 0.52763  0.56225  0.45116  Biso   1.000  Hf
  Hf46     1.0000 0.53304  0.56556  0.93430  Biso   1.000  Hf
  Hf47     1.0000 0.46392  0.42786  0.19921  Biso   1.000  Hf
  Hf48     1.0000 0.46398  0.43481  0.69519  Biso   1.000  Hf
  Hf49     1.0000 0.48558  0.91950  0.21140  Biso   1.000  Hf
  Hf50     1.0000 0.46239  0.93865  0.70296  Biso   1.000  Hf
  Hf51     1.0000 0.96607  0.43678  0.19613  Biso   1.000  Hf
  Hf52     1.0000 0.96572  0.43959  0.69962  Biso   1.000  Hf
  Hf53     1.0000 0.90499  0.92390  0.19279  Biso   1.000  Hf
  Hf54     1.0000 0.95925  0.93830  0.69258  Biso   1.000  Hf
  Hf55     1.0000 0.46051  0.31416  0.44496  Biso   1.000  Hf
  Hf56     1.0000 0.46405  0.31975  0.94736  Biso   1.000  Hf
  Hf57     1.0000 0.45025  0.83027  0.46406  Biso   1.000  Hf
  Hf58     1.0000 0.46560  0.82339  0.94551  Biso   1.000  Hf
  Hf59     1.0000 0.96549  0.32424  0.44975  Biso   1.000  Hf
  Hf60     1.0000 0.96717  0.32934  0.94896  Biso   1.000  Hf
  Hf61     1.0000 0.96350  0.82376  0.44254  Biso   1.000  Hf
  Hf62     1.0000 0.97582  0.83444  0.94644  Biso   1.000  Hf
  Hf63     1.0000 0.27534  0.12502  0.25561  Biso   1.000  Hf
  Hf64     1.0000 0.26980  0.12258  0.75052  Biso   1.000  Hf
  Hf65     1.0000 0.27185  0.61523  0.25140  Biso   1.000  Hf
  Hf66     1.0000 0.26497  0.61918  0.75214  Biso   1.000  Hf
  Hf67     1.0000 0.76258  0.11482  0.25443  Biso   1.000  Hf
  Hf68     1.0000 0.76732  0.12226  0.74908  Biso   1.000  Hf
  Hf69     1.0000 0.77444  0.60715  0.23236  Biso   1.000  Hf
  Hf70     1.0000 0.76799  0.62197  0.74518  Biso   1.000  Hf
  Hf71     1.0000 0.26925  0.13504  0.50365  Biso   1.000  Hf
  Hf72     1.0000 0.26904  0.13974  0.99594  Biso   1.000  Hf
  Hf73     1.0000 0.26812  0.63685  0.50370  Biso   1.000  Hf
  Hf74     1.0000 0.26666  0.63258  0.99955  Biso   1.000  Hf
  Hf75     1.0000 0.76858  0.14308  0.50205  Biso   1.000  Hf
  Hf76     1.0000 0.77090  0.13874  0.99985  Biso   1.000  Hf
  Hf77     1.0000 0.77849  0.62876  0.49995  Biso   1.000  Hf
  Hf78     1.0000 0.75955  0.62999  0.98617  Biso   1.000  Hf
  Hf79     1.0000 0.22940  0.38619  0.50039  Biso   1.000  Hf
  Hf80     1.0000 0.22722  0.38393  0.00002  Biso   1.000  Hf
  Hf81     1.0000 0.21876  0.88867  0.50428  Biso   1.000  Hf
  Hf82     1.0000 0.23847  0.87721  0.99434  Biso   1.000  Hf
  Hf83     1.0000 0.72646  0.38555  0.49721  Biso   1.000  Hf
  Hf84     1.0000 0.72880  0.38538  0.99502  Biso   1.000  Hf
  Hf85     1.0000 0.73702  0.89879  0.50702  Biso   1.000  Hf
  Hf86     1.0000 0.73018  0.87985  0.99861  Biso   1.000  Hf
  Hf87     1.0000 0.22635  0.36804  0.24952  Biso   1.000  Hf
  Hf88     1.0000 0.22913  0.37159  0.74761  Biso   1.000  Hf
  Hf89     1.0000 0.24505  0.86061  0.25902  Biso   1.000  Hf
  Hf90     1.0000 0.22582  0.87396  0.75182  Biso   1.000  Hf
  Hf91     1.0000 0.72977  0.36499  0.24761  Biso   1.000  Hf
  Hf92     1.0000 0.72957  0.37176  0.74815  Biso   1.000  Hf
  Hf93     1.0000 0.77727  0.87675  0.23528  Biso   1.000  Hf
  Hf94     1.0000 0.72669  0.86933  0.74817  Biso   1.000  Hf
