data_image0
_cell_length_a       10.1898
_cell_length_b       10.3561
_cell_length_c       10.4869
_cell_angle_alpha    90
_cell_angle_beta     80
_cell_angle_gamma    90

_symmetry_space_group_name_H-M    "P 1"
_symmetry_int_tables_number       1

loop_
  _symmetry_equiv_pos_as_xyz
  'x, y, z'

loop_
  _atom_site_label
  _atom_site_occupancy
  _atom_site_fract_x
  _atom_site_fract_y
  _atom_site_fract_z
  _atom_site_thermal_displace_type
  _atom_site_B_iso_or_equiv
  _atom_site_type_symbol
  La1      1.0000 0.13165  0.01051  0.14062  Biso   1.000  La
  Hf1      1.0000 0.13194  0.02104  0.64865  Biso   1.000  Hf
  Hf2      1.0000 0.13321  0.51758  0.14547  Biso   1.000  Hf
  Hf3      1.0000 0.12818  0.51962  0.64678  Biso   1.000  Hf
  La2      1.0000 0.63158  0.01049  0.14059  Biso   1.000  La
  Hf4      1.0000 0.63195  0.02104  0.64863  Biso   1.000  Hf
  Hf5      1.0000 0.63323  0.51759  0.14545  Biso   1.000  Hf
  Hf6      1.0000 0.62819  0.51964  0.64676  Biso   1.000  Hf
  Hf7      1.0000 0.13076  0.22861  0.39873  Biso   1.000  Hf
  Hf8      1.0000 0.12645  0.23147  0.89594  Biso   1.000  Hf
  Hf9      1.0000 0.12712  0.72251  0.39892  Biso   1.000  Hf
  Hf10     1.0000 0.12871  0.72697  0.89437  Biso   1.000  Hf
  Hf11     1.0000 0.63077  0.22862  0.39869  Biso   1.000  Hf
  Hf12     1.0000 0.62648  0.23147  0.89591  Biso   1.000  Hf
  Hf13     1.0000 0.62714  0.72253  0.39888  Biso   1.000  Hf
  Hf14     1.0000 0.62872  0.72698  0.89434  Biso   1.000  Hf
  Hf15     1.0000 0.35585  0.27127  0.10319  Biso   1.000  Hf
  Hf16     1.0000 0.35189  0.27047  0.60539  Biso   1.000  Hf
  Hf17     1.0000 0.35738  0.76115  0.10337  Biso   1.000  Hf
  Hf18     1.0000 0.34946  0.77090  0.60464  Biso   1.000  Hf
  Hf19     1.0000 0.85584  0.27124  0.10316  Biso   1.000  Hf
  Hf20     1.0000 0.85189  0.27046  0.60536  Biso   1.000  Hf
  Hf21     1.0000 0.85738  0.76118  0.10335  Biso   1.000  Hf
  Hf22     1.0000 0.84946  0.77090  0.60459  Biso   1.000  Hf
  Hf23     1.0000 0.35182  0.47642  0.35410  Biso   1.000  Hf
  Hf24     1.0000 0.34860  0.47751  0.85416  Biso   1.000  Hf
  Hf25     1.0000 0.34433  0.97890  0.36217  Biso   1.000  Hf
  Hf26     1.0000 0.34991  0.97694  0.85446  Biso   1.000  Hf
  Hf27     1.0000 0.85182  0.47641  0.35407  Biso   1.000  Hf
  Hf28     1.0000 0.84861  0.47752  0.85414  Biso   1.000  Hf
  Hf29     1.0000 0.84435  0.97892  0.36210  Biso   1.000  Hf
  Hf30     1.0000 0.84991  0.97695  0.85444  Biso   1.000  Hf
  Hf31     1.0000 0.03425  0.18991  0.07618  Biso   1.000  Hf
  Hf32     1.0000 0.02706  0.17122  0.58700  Biso   1.000  Hf
  Hf33     1.0000 0.03771  0.67405  0.08226  Biso   1.000  Hf
  Hf34     1.0000 0.02343  0.66738  0.58350  Biso   1.000  Hf
  Hf35     1.0000 0.53423  0.18989  0.07616  Biso   1.000  Hf
  Hf36     1.0000 0.52700  0.17113  0.58692  Biso   1.000  Hf
  Hf37     1.0000 0.53766  0.67399  0.08220  Biso   1.000  Hf
  Hf38     1.0000 0.52339  0.66729  0.58342  Biso   1.000  Hf
  Hf39     1.0000 0.02297  0.07858  0.34974  Biso   1.000  Hf
  Hf40     1.0000 0.02943  0.07822  0.83374  Biso   1.000  Hf
  Hf41     1.0000 0.02600  0.57864  0.33035  Biso   1.000  Hf
  Hf42     1.0000 0.02305  0.57923  0.83123  Biso   1.000  Hf
  Hf43     1.0000 0.52297  0.07861  0.34969  Biso   1.000  Hf
  Hf44     1.0000 0.52938  0.07831  0.83367  Biso   1.000  Hf
  Hf45     1.0000 0.52598  0.57870  0.33029  Biso   1.000  Hf
  Hf46     1.0000 0.52300  0.57933  0.83117  Biso   1.000  Hf
  Hf47     1.0000 0.45495  0.42341  0.16841  Biso   1.000  Hf
  Hf48     1.0000 0.45376  0.41963  0.66893  Biso   1.000  Hf
  Hf49     1.0000 0.42267  0.92665  0.17136  Biso   1.000  Hf
  Hf50     1.0000 0.45308  0.91716  0.67180  Biso   1.000  Hf
  Hf51     1.0000 0.95492  0.42345  0.16835  Biso   1.000  Hf
  Hf52     1.0000 0.95370  0.41971  0.66886  Biso   1.000  Hf
  Hf53     1.0000 0.92271  0.92671  0.17127  Biso   1.000  Hf
  Hf54     1.0000 0.95303  0.91723  0.67174  Biso   1.000  Hf
  Hf55     1.0000 0.45538  0.33041  0.42096  Biso   1.000  Hf
  Hf56     1.0000 0.45062  0.33218  0.91554  Biso   1.000  Hf
  Hf57     1.0000 0.45395  0.82900  0.42082  Biso   1.000  Hf
  Hf58     1.0000 0.46180  0.83480  0.92424  Biso   1.000  Hf
  Hf59     1.0000 0.95534  0.33035  0.42092  Biso   1.000  Hf
  Hf60     1.0000 0.95056  0.33209  0.91545  Biso   1.000  Hf
  Hf61     1.0000 0.95393  0.82894  0.42076  Biso   1.000  Hf
  Hf62     1.0000 0.96172  0.83466  0.92412  Biso   1.000  Hf
  Hf63     1.0000 0.27586  0.13770  0.25146  Biso   1.000  Hf
  Hf64     1.0000 0.26810  0.12861  0.74055  Biso   1.000  Hf
  Hf65     1.0000 0.26845  0.62217  0.24002  Biso   1.000  Hf
  Hf66     1.0000 0.26450  0.62859  0.74003  Biso   1.000  Hf
  Hf67     1.0000 0.77587  0.13766  0.25143  Biso   1.000  Hf
  Hf68     1.0000 0.76813  0.12857  0.74052  Biso   1.000  Hf
  Hf69     1.0000 0.76846  0.62213  0.23999  Biso   1.000  Hf
  Hf70     1.0000 0.76450  0.62856  0.73999  Biso   1.000  Hf
  Hf71     1.0000 0.26500  0.12081  0.49630  Biso   1.000  Hf
  Hf72     1.0000 0.27135  0.12539  0.98242  Biso   1.000  Hf
  Hf73     1.0000 0.26530  0.61901  0.49143  Biso   1.000  Hf
  Hf74     1.0000 0.26152  0.61479  0.99138  Biso   1.000  Hf
  Hf75     1.0000 0.76500  0.12085  0.49626  Biso   1.000  Hf
  Hf76     1.0000 0.77133  0.12541  0.98239  Biso   1.000  Hf
  Hf77     1.0000 0.76530  0.61903  0.49139  Biso   1.000  Hf
  Hf78     1.0000 0.76151  0.61484  0.99134  Biso   1.000  Hf
  Hf79     1.0000 0.22236  0.38068  0.00705  Biso   1.000  Hf
  Hf80     1.0000 0.21446  0.37827  0.51036  Biso   1.000  Hf
  Hf81     1.0000 0.22567  0.86243  0.99668  Biso   1.000  Hf
  Hf82     1.0000 0.21199  0.87818  0.51372  Biso   1.000  Hf
  Hf83     1.0000 0.72238  0.38071  0.00703  Biso   1.000  Hf
  Hf84     1.0000 0.71444  0.37830  0.51033  Biso   1.000  Hf
  Hf85     1.0000 0.72565  0.86248  0.99667  Biso   1.000  Hf
  Hf86     1.0000 0.71198  0.87822  0.51367  Biso   1.000  Hf
  Hf87     1.0000 0.21359  0.37189  0.25988  Biso   1.000  Hf
  Hf88     1.0000 0.21307  0.37137  0.75870  Biso   1.000  Hf
  Hf89     1.0000 0.21728  0.85521  0.26919  Biso   1.000  Hf
  Hf90     1.0000 0.21264  0.87024  0.75793  Biso   1.000  Hf
  Hf91     1.0000 0.71360  0.37186  0.25983  Biso   1.000  Hf
  Hf92     1.0000 0.71307  0.37132  0.75867  Biso   1.000  Hf
  Hf93     1.0000 0.71732  0.85517  0.26910  Biso   1.000  Hf
  Hf94     1.0000 0.71264  0.87020  0.75790  Biso   1.000  Hf
