data_image0
_cell_length_a       10.1168
_cell_length_b       10.3114
_cell_length_c       10.4986
_cell_angle_alpha    90
_cell_angle_beta     90
_cell_angle_gamma    90

_symmetry_space_group_name_H-M    "P 1"
_symmetry_int_tables_number       1

loop_
  _symmetry_equiv_pos_as_xyz
  'x, y, z'

loop_
  _atom_site_label
  _atom_site_occupancy
  _atom_site_fract_x
  _atom_site_fract_y
  _atom_site_fract_z
  _atom_site_thermal_displace_type
  _atom_site_B_iso_or_equiv
  _atom_site_type_symbol
  La1      1.0000 0.12911  0.01090  0.16180  Biso   1.000  La
  Hf1      1.0000 0.13413  0.01929  0.67433  Biso   1.000  Hf
  Hf2      1.0000 0.14282  0.51842  0.16326  Biso   1.000  Hf
  Hf3      1.0000 0.12973  0.52011  0.66864  Biso   1.000  Hf
  Hf4      1.0000 0.13571  0.22354  0.42511  Biso   1.000  Hf
  Hf5      1.0000 0.12894  0.23187  0.91753  Biso   1.000  Hf
  Hf6      1.0000 0.13347  0.73398  0.42549  Biso   1.000  Hf
  Hf7      1.0000 0.12940  0.72661  0.91778  Biso   1.000  Hf
  Hf8      1.0000 0.35813  0.26785  0.17018  Biso   1.000  Hf
  Hf9      1.0000 0.35346  0.26942  0.67129  Biso   1.000  Hf
  Hf10     1.0000 0.35997  0.76862  0.16865  Biso   1.000  Hf
  Hf11     1.0000 0.35173  0.77033  0.67180  Biso   1.000  Hf
  Hf12     1.0000 0.35188  0.47656  0.41873  Biso   1.000  Hf
  Hf13     1.0000 0.35220  0.47717  0.91877  Biso   1.000  Hf
  Hf14     1.0000 0.35307  0.98085  0.42222  Biso   1.000  Hf
  Hf15     1.0000 0.35291  0.97945  0.91950  Biso   1.000  Hf
  Hf16     1.0000 0.64132  0.02290  0.08128  Biso   1.000  Hf
  Hf17     1.0000 0.63291  0.02126  0.58118  Biso   1.000  Hf
  Hf18     1.0000 0.63455  0.51862  0.07778  Biso   1.000  Hf
  Hf19     1.0000 0.62662  0.51900  0.58043  Biso   1.000  Hf
  Hf20     1.0000 0.63506  0.23162  0.32981  Biso   1.000  Hf
  Hf21     1.0000 0.63165  0.22901  0.82867  Biso   1.000  Hf
  Hf22     1.0000 0.62764  0.73085  0.33131  Biso   1.000  Hf
  Hf23     1.0000 0.62781  0.72809  0.82814  Biso   1.000  Hf
  Hf24     1.0000 0.85749  0.27595  0.07487  Biso   1.000  Hf
  Hf25     1.0000 0.85616  0.26655  0.58242  Biso   1.000  Hf
  Hf26     1.0000 0.85416  0.76548  0.07448  Biso   1.000  Hf
  Hf27     1.0000 0.85014  0.77183  0.58215  Biso   1.000  Hf
  La2      1.0000 0.86407  0.48855  0.33820  Biso   1.000  La
  Hf28     1.0000 0.85099  0.47913  0.82562  Biso   1.000  Hf
  Hf29     1.0000 0.84481  0.98106  0.33672  Biso   1.000  Hf
  Hf30     1.0000 0.84980  0.97833  0.83131  Biso   1.000  Hf
  Hf31     1.0000 0.03242  0.18897  0.08117  Biso   1.000  Hf
  Hf32     1.0000 0.03262  0.17014  0.59926  Biso   1.000  Hf
  Hf33     1.0000 0.03363  0.67390  0.08716  Biso   1.000  Hf
  Hf34     1.0000 0.02259  0.66704  0.58482  Biso   1.000  Hf
  Hf35     1.0000 0.02569  0.07368  0.35557  Biso   1.000  Hf
  Hf36     1.0000 0.03042  0.07527  0.84342  Biso   1.000  Hf
  Hf37     1.0000 0.06353  0.57990  0.33443  Biso   1.000  Hf
  Hf38     1.0000 0.02495  0.57952  0.83358  Biso   1.000  Hf
  Hf39     1.0000 0.46406  0.41296  0.08093  Biso   1.000  Hf
  Hf40     1.0000 0.45604  0.41413  0.58335  Biso   1.000  Hf
  Hf41     1.0000 0.46600  0.91596  0.08257  Biso   1.000  Hf
  Hf42     1.0000 0.45903  0.91235  0.58221  Biso   1.000  Hf
  Hf43     1.0000 0.46315  0.33653  0.33181  Biso   1.000  Hf
  Hf44     1.0000 0.45963  0.33421  0.83183  Biso   1.000  Hf
  Hf45     1.0000 0.46309  0.83959  0.33139  Biso   1.000  Hf
  Hf46     1.0000 0.45879  0.83633  0.83034  Biso   1.000  Hf
  Hf47     1.0000 0.27882  0.12624  0.30217  Biso   1.000  Hf
  Hf48     1.0000 0.26872  0.12366  0.79346  Biso   1.000  Hf
  Hf49     1.0000 0.28680  0.61827  0.28795  Biso   1.000  Hf
  Hf50     1.0000 0.26597  0.62324  0.79253  Biso   1.000  Hf
  Hf51     1.0000 0.28422  0.13245  0.03496  Biso   1.000  Hf
  Hf52     1.0000 0.27188  0.12335  0.54800  Biso   1.000  Hf
  Hf53     1.0000 0.27247  0.62120  0.04054  Biso   1.000  Hf
  Hf54     1.0000 0.26644  0.62600  0.54384  Biso   1.000  Hf
  Hf55     1.0000 0.21850  0.36935  0.29053  Biso   1.000  Hf
  Hf56     1.0000 0.21602  0.37419  0.79133  Biso   1.000  Hf
  Hf57     1.0000 0.22712  0.86170  0.30084  Biso   1.000  Hf
  Hf58     1.0000 0.21440  0.87185  0.79270  Biso   1.000  Hf
  Hf59     1.0000 0.22467  0.37570  0.03992  Biso   1.000  Hf
  Hf60     1.0000 0.21563  0.37496  0.54330  Biso   1.000  Hf
  Hf61     1.0000 0.23774  0.86197  0.03274  Biso   1.000  Hf
  Hf62     1.0000 0.21599  0.87809  0.54752  Biso   1.000  Hf
  Hf63     1.0000 0.53003  0.16293  0.16818  Biso   1.000  Hf
  Hf64     1.0000 0.52548  0.16420  0.66813  Biso   1.000  Hf
  Hf65     1.0000 0.52453  0.65991  0.16857  Biso   1.000  Hf
  Hf66     1.0000 0.52076  0.66212  0.66958  Biso   1.000  Hf
  Hf67     1.0000 0.52914  0.08655  0.41907  Biso   1.000  Hf
  Hf68     1.0000 0.52907  0.08430  0.91661  Biso   1.000  Hf
  Hf69     1.0000 0.52161  0.58351  0.41743  Biso   1.000  Hf
  Hf70     1.0000 0.52051  0.58604  0.91771  Biso   1.000  Hf
  Hf71     1.0000 0.96751  0.42581  0.14443  Biso   1.000  Hf
  Hf72     1.0000 0.95468  0.42317  0.65654  Biso   1.000  Hf
  Hf73     1.0000 0.92406  0.91960  0.16553  Biso   1.000  Hf
  Hf74     1.0000 0.95458  0.91891  0.66637  Biso   1.000  Hf
  Hf75     1.0000 0.96076  0.31049  0.41888  Biso   1.000  Hf
  Hf76     1.0000 0.95250  0.32826  0.90072  Biso   1.000  Hf
  Hf77     1.0000 0.95396  0.82561  0.41282  Biso   1.000  Hf
  Hf78     1.0000 0.95696  0.83138  0.91509  Biso   1.000  Hf
  Hf79     1.0000 0.76946  0.12349  0.95668  Biso   1.000  Hf
  Hf80     1.0000 0.76851  0.12376  0.46011  Biso   1.000  Hf
  Hf81     1.0000 0.76356  0.62035  0.95240  Biso   1.000  Hf
  Hf82     1.0000 0.74989  0.63750  0.46724  Biso   1.000  Hf
  Hf83     1.0000 0.77465  0.13012  0.20946  Biso   1.000  Hf
  Hf84     1.0000 0.76909  0.12423  0.70864  Biso   1.000  Hf
  Hf85     1.0000 0.76052  0.63778  0.19914  Biso   1.000  Hf
  Hf86     1.0000 0.76515  0.62659  0.70727  Biso   1.000  Hf
  Hf87     1.0000 0.71322  0.37508  0.95195  Biso   1.000  Hf
  Hf88     1.0000 0.70897  0.36701  0.46506  Biso   1.000  Hf
  Hf89     1.0000 0.71310  0.87243  0.95608  Biso   1.000  Hf
  Hf90     1.0000 0.71514  0.87826  0.45945  Biso   1.000  Hf
  Hf91     1.0000 0.71435  0.37322  0.19780  Biso   1.000  Hf
  Hf92     1.0000 0.71640  0.37476  0.70649  Biso   1.000  Hf
  Hf93     1.0000 0.70082  0.88121  0.21205  Biso   1.000  Hf
  Hf94     1.0000 0.71357  0.87519  0.70743  Biso   1.000  Hf
