data_image0
_cell_length_a       10.1222
_cell_length_b       10.3165
_cell_length_c       10.47
_cell_angle_alpha    90
_cell_angle_beta     90
_cell_angle_gamma    90

_symmetry_space_group_name_H-M    "P 1"
_symmetry_int_tables_number       1

loop_
  _symmetry_equiv_pos_as_xyz
  'x, y, z'

loop_
  _atom_site_label
  _atom_site_occupancy
  _atom_site_fract_x
  _atom_site_fract_y
  _atom_site_fract_z
  _atom_site_thermal_displace_type
  _atom_site_B_iso_or_equiv
  _atom_site_type_symbol
  La1      1.0000 0.13013  0.01045  0.15962  Biso   1.000  La
  Hf1      1.0000 0.14235  0.01855  0.66616  Biso   1.000  Hf
  Hf2      1.0000 0.13546  0.51950  0.17339  Biso   1.000  Hf
  Hf3      1.0000 0.13074  0.52126  0.67049  Biso   1.000  Hf
  Hf4      1.0000 0.13260  0.22719  0.42182  Biso   1.000  Hf
  Hf5      1.0000 0.13163  0.23948  0.92139  Biso   1.000  Hf
  Hf6      1.0000 0.13210  0.72760  0.42100  Biso   1.000  Hf
  Hf7      1.0000 0.13316  0.72455  0.92120  Biso   1.000  Hf
  Hf8      1.0000 0.35711  0.26944  0.17187  Biso   1.000  Hf
  Hf9      1.0000 0.35357  0.27266  0.66936  Biso   1.000  Hf
  Hf10     1.0000 0.36027  0.76632  0.17047  Biso   1.000  Hf
  Hf11     1.0000 0.35356  0.76961  0.66982  Biso   1.000  Hf
  Hf12     1.0000 0.35456  0.47841  0.42137  Biso   1.000  Hf
  Hf13     1.0000 0.35317  0.48076  0.92187  Biso   1.000  Hf
  Hf14     1.0000 0.35355  0.97942  0.41915  Biso   1.000  Hf
  Hf15     1.0000 0.35169  0.97969  0.91648  Biso   1.000  Hf
  Hf16     1.0000 0.63570  0.02134  0.08350  Biso   1.000  Hf
  Hf17     1.0000 0.63385  0.02161  0.58082  Biso   1.000  Hf
  Hf18     1.0000 0.63421  0.52027  0.07811  Biso   1.000  Hf
  Hf19     1.0000 0.63283  0.52262  0.57861  Biso   1.000  Hf
  Hf20     1.0000 0.63383  0.23142  0.33015  Biso   1.000  Hf
  Hf21     1.0000 0.62712  0.23471  0.82951  Biso   1.000  Hf
  Hf22     1.0000 0.63382  0.72837  0.33062  Biso   1.000  Hf
  Hf23     1.0000 0.63028  0.73159  0.82811  Biso   1.000  Hf
  Hf24     1.0000 0.85423  0.27648  0.07878  Biso   1.000  Hf
  Hf25     1.0000 0.85531  0.27343  0.57898  Biso   1.000  Hf
  Hf26     1.0000 0.85575  0.76155  0.07859  Biso   1.000  Hf
  Hf27     1.0000 0.85479  0.77384  0.57816  Biso   1.000  Hf
  Hf28     1.0000 0.85665  0.47977  0.32948  Biso   1.000  Hf
  Hf29     1.0000 0.85193  0.48153  0.82659  Biso   1.000  Hf
  Hf30     1.0000 0.84504  0.98248  0.33382  Biso   1.000  Hf
  La2      1.0000 0.85726  0.99057  0.84036  Biso   1.000  La
  Hf31     1.0000 0.02841  0.18928  0.08113  Biso   1.000  Hf
  Hf32     1.0000 0.03012  0.17220  0.59474  Biso   1.000  Hf
  Hf33     1.0000 0.03777  0.67558  0.09798  Biso   1.000  Hf
  Hf34     1.0000 0.02742  0.66940  0.58690  Biso   1.000  Hf
  Hf35     1.0000 0.02175  0.08260  0.34949  Biso   1.000  Hf
  Hf36     1.0000 0.06826  0.07123  0.84680  Biso   1.000  Hf
  Hf37     1.0000 0.03045  0.57805  0.34035  Biso   1.000  Hf
  Hf38     1.0000 0.02991  0.57323  0.83907  Biso   1.000  Hf
  Hf39     1.0000 0.46588  0.41202  0.08153  Biso   1.000  Hf
  Hf40     1.0000 0.46266  0.41424  0.58152  Biso   1.000  Hf
  Hf41     1.0000 0.46042  0.91774  0.08580  Biso   1.000  Hf
  Hf42     1.0000 0.45776  0.91495  0.58204  Biso   1.000  Hf
  Hf43     1.0000 0.46333  0.33840  0.33257  Biso   1.000  Hf
  Hf44     1.0000 0.45827  0.33881  0.83102  Biso   1.000  Hf
  Hf45     1.0000 0.46638  0.83731  0.33269  Biso   1.000  Hf
  Hf46     1.0000 0.45930  0.83627  0.83004  Biso   1.000  Hf
  Hf47     1.0000 0.27655  0.12819  0.30064  Biso   1.000  Hf
  Hf48     1.0000 0.28305  0.12275  0.78636  Biso   1.000  Hf
  Hf49     1.0000 0.27179  0.62032  0.29556  Biso   1.000  Hf
  Hf50     1.0000 0.26919  0.62258  0.79388  Biso   1.000  Hf
  Hf51     1.0000 0.28408  0.13493  0.03374  Biso   1.000  Hf
  Hf52     1.0000 0.27058  0.12579  0.54231  Biso   1.000  Hf
  Hf53     1.0000 0.27327  0.61860  0.04724  Biso   1.000  Hf
  Hf54     1.0000 0.26807  0.62494  0.54485  Biso   1.000  Hf
  Hf55     1.0000 0.21818  0.37201  0.29510  Biso   1.000  Hf
  Hf56     1.0000 0.21696  0.37454  0.79314  Biso   1.000  Hf
  Hf57     1.0000 0.22807  0.86208  0.29874  Biso   1.000  Hf
  Hf58     1.0000 0.21633  0.86965  0.78835  Biso   1.000  Hf
  Hf59     1.0000 0.22187  0.37869  0.04568  Biso   1.000  Hf
  Hf60     1.0000 0.21778  0.37678  0.54443  Biso   1.000  Hf
  Hf61     1.0000 0.23792  0.85976  0.03200  Biso   1.000  Hf
  Hf62     1.0000 0.21864  0.87532  0.54176  Biso   1.000  Hf
  Hf63     1.0000 0.52809  0.16476  0.16994  Biso   1.000  Hf
  Hf64     1.0000 0.52103  0.16372  0.66729  Biso   1.000  Hf
  Hf65     1.0000 0.52913  0.66222  0.16896  Biso   1.000  Hf
  Hf66     1.0000 0.52406  0.66263  0.66741  Biso   1.000  Hf
  Hf67     1.0000 0.52963  0.08608  0.41794  Biso   1.000  Hf
  Hf68     1.0000 0.52697  0.08329  0.91418  Biso   1.000  Hf
  Hf69     1.0000 0.52474  0.58679  0.41846  Biso   1.000  Hf
  Hf70     1.0000 0.52152  0.58901  0.91845  Biso   1.000  Hf
  Hf71     1.0000 0.95748  0.42780  0.16091  Biso   1.000  Hf
  Hf72     1.0000 0.95694  0.42298  0.65963  Biso   1.000  Hf
  Hf73     1.0000 0.91913  0.92979  0.15318  Biso   1.000  Hf
  Hf74     1.0000 0.96564  0.91843  0.65049  Biso   1.000  Hf
  Hf75     1.0000 0.95997  0.33163  0.41308  Biso   1.000  Hf
  Hf76     1.0000 0.94961  0.32545  0.90200  Biso   1.000  Hf
  Hf77     1.0000 0.95727  0.82883  0.40524  Biso   1.000  Hf
  Hf78     1.0000 0.95899  0.81175  0.91885  Biso   1.000  Hf
  Hf79     1.0000 0.74947  0.14127  0.96798  Biso   1.000  Hf
  Hf80     1.0000 0.76875  0.12571  0.45822  Biso   1.000  Hf
  Hf81     1.0000 0.76553  0.62234  0.95430  Biso   1.000  Hf
  Hf82     1.0000 0.76962  0.62425  0.45555  Biso   1.000  Hf
  Hf83     1.0000 0.77107  0.13138  0.21164  Biso   1.000  Hf
  Hf84     1.0000 0.75933  0.13895  0.70123  Biso   1.000  Hf
  Hf85     1.0000 0.77043  0.62649  0.20684  Biso   1.000  Hf
  Hf86     1.0000 0.76921  0.62902  0.70487  Biso   1.000  Hf
  Hf87     1.0000 0.71412  0.38243  0.95274  Biso   1.000  Hf
  Hf88     1.0000 0.71932  0.37609  0.45513  Biso   1.000  Hf
  Hf89     1.0000 0.70331  0.86610  0.96624  Biso   1.000  Hf
  Hf90     1.0000 0.71681  0.87524  0.45767  Biso   1.000  Hf
  Hf91     1.0000 0.71820  0.37845  0.20610  Biso   1.000  Hf
  Hf92     1.0000 0.71560  0.38071  0.70441  Biso   1.000  Hf
  Hf93     1.0000 0.70434  0.87828  0.21362  Biso   1.000  Hf
  Hf94     1.0000 0.71085  0.87284  0.69933  Biso   1.000  Hf
