data_image0
_cell_length_a       10.0871
_cell_length_b       10.2379
_cell_length_c       10.1275
_cell_angle_alpha    90
_cell_angle_beta     90
_cell_angle_gamma    90

_symmetry_space_group_name_H-M    "P 1"
_symmetry_int_tables_number       1

loop_
  _symmetry_equiv_pos_as_xyz
  'x, y, z'

loop_
  _atom_site_label
  _atom_site_occupancy
  _atom_site_fract_x
  _atom_site_fract_y
  _atom_site_fract_z
  _atom_site_thermal_displace_type
  _atom_site_B_iso_or_equiv
  _atom_site_type_symbol
  La1      1.0000 0.12492  0.00364  0.12676  Biso   1.000  La
  Hf1      1.0000 0.12390  0.00473  0.62532  Biso   1.000  Hf
  Hf2      1.0000 0.12217  0.50181  0.12496  Biso   1.000  Hf
  Hf3      1.0000 0.12566  0.50184  0.62700  Biso   1.000  Hf
  Hf4      1.0000 0.62605  0.99350  0.12112  Biso   1.000  Hf
  Hf5      1.0000 0.62394  0.99809  0.62760  Biso   1.000  Hf
  Hf6      1.0000 0.62546  0.50003  0.12240  Biso   1.000  Hf
  Hf7      1.0000 0.62773  0.50188  0.62800  Biso   1.000  Hf
  Hf8      1.0000 0.12349  0.25768  0.38034  Biso   1.000  Hf
  Hf9      1.0000 0.12530  0.25431  0.87382  Biso   1.000  Hf
  Hf10     1.0000 0.12408  0.75117  0.37902  Biso   1.000  Hf
  Hf11     1.0000 0.12157  0.75060  0.87336  Biso   1.000  Hf
  La2      1.0000 0.62510  0.24756  0.37468  Biso   1.000  La
  Hf12     1.0000 0.62582  0.24770  0.87613  Biso   1.000  Hf
  Hf13     1.0000 0.62738  0.74936  0.37639  Biso   1.000  Hf
  Hf14     1.0000 0.62366  0.75055  0.87444  Biso   1.000  Hf
  Hf15     1.0000 0.37694  0.25121  0.11618  Biso   1.000  Hf
  Hf16     1.0000 0.37524  0.25318  0.62941  Biso   1.000  Hf
  Hf17     1.0000 0.37392  0.74700  0.12224  Biso   1.000  Hf
  Hf18     1.0000 0.37312  0.74991  0.62538  Biso   1.000  Hf
  Hf19     1.0000 0.87741  0.25508  0.12813  Biso   1.000  Hf
  Hf20     1.0000 0.87443  0.25044  0.62923  Biso   1.000  Hf
  Hf21     1.0000 0.87476  0.74631  0.12445  Biso   1.000  Hf
  Hf22     1.0000 0.87381  0.75293  0.62734  Biso   1.000  Hf
  Hf23     1.0000 0.37260  0.99996  0.38522  Biso   1.000  Hf
  Hf24     1.0000 0.37407  0.99921  0.87207  Biso   1.000  Hf
  Hf25     1.0000 0.37561  0.50417  0.37919  Biso   1.000  Hf
  Hf26     1.0000 0.37618  0.50252  0.87605  Biso   1.000  Hf
  Hf27     1.0000 0.87208  0.99610  0.37328  Biso   1.000  Hf
  Hf28     1.0000 0.87527  0.00196  0.87224  Biso   1.000  Hf
  Hf29     1.0000 0.87482  0.50482  0.37692  Biso   1.000  Hf
  Hf30     1.0000 0.87548  0.49950  0.87402  Biso   1.000  Hf
  Hf31     1.0000 0.99190  0.15324  0.99917  Biso   1.000  Hf
  Hf32     1.0000 0.00846  0.15653  0.51952  Biso   1.000  Hf
  Hf33     1.0000 0.00509  0.64334  0.00759  Biso   1.000  Hf
  Hf34     1.0000 0.99769  0.65109  0.50657  Biso   1.000  Hf
  Hf35     1.0000 0.50867  0.14697  0.01251  Biso   1.000  Hf
  Hf36     1.0000 0.48959  0.13165  0.52063  Biso   1.000  Hf
  Hf37     1.0000 0.50421  0.64465  0.00418  Biso   1.000  Hf
  Hf38     1.0000 0.49726  0.64797  0.50319  Biso   1.000  Hf
  Hf39     1.0000 0.99497  0.12030  0.27607  Biso   1.000  Hf
  Hf40     1.0000 0.00266  0.10454  0.75974  Biso   1.000  Hf
  Hf41     1.0000 0.00171  0.60583  0.25661  Biso   1.000  Hf
  Hf42     1.0000 0.00081  0.60534  0.75675  Biso   1.000  Hf
  Hf43     1.0000 0.49369  0.08568  0.25055  Biso   1.000  Hf
  Hf44     1.0000 0.50542  0.10202  0.76382  Biso   1.000  Hf
  Hf45     1.0000 0.50114  0.60213  0.25403  Biso   1.000  Hf
  Hf46     1.0000 0.50066  0.60401  0.75503  Biso   1.000  Hf
  Hf47     1.0000 0.00249  0.35893  0.24184  Biso   1.000  Hf
  Hf48     1.0000 0.99925  0.35729  0.74385  Biso   1.000  Hf
  Hf49     1.0000 0.99325  0.84966  0.25313  Biso   1.000  Hf
  Hf50     1.0000 0.00600  0.85455  0.73870  Biso   1.000  Hf
  Hf51     1.0000 0.48693  0.36640  0.23794  Biso   1.000  Hf
  Hf52     1.0000 0.49828  0.35278  0.74925  Biso   1.000  Hf
  Hf53     1.0000 0.51112  0.84107  0.23458  Biso   1.000  Hf
  Hf54     1.0000 0.50463  0.85239  0.73923  Biso   1.000  Hf
  Hf55     1.0000 0.00061  0.39892  0.99337  Biso   1.000  Hf
  Hf56     1.0000 0.01061  0.40545  0.48890  Biso   1.000  Hf
  Hf57     1.0000 0.98635  0.88336  0.98562  Biso   1.000  Hf
  Hf58     1.0000 0.00284  0.90274  0.49398  Biso   1.000  Hf
  Hf59     1.0000 0.50111  0.39711  0.99255  Biso   1.000  Hf
  Hf60     1.0000 0.49696  0.40191  0.50514  Biso   1.000  Hf
  Hf61     1.0000 0.49820  0.89611  0.98866  Biso   1.000  Hf
  Hf62     1.0000 0.50513  0.89295  0.48947  Biso   1.000  Hf
  Hf63     1.0000 0.25632  0.16556  0.25088  Biso   1.000  Hf
  Hf64     1.0000 0.24426  0.15044  0.73758  Biso   1.000  Hf
  Hf65     1.0000 0.24838  0.64909  0.24744  Biso   1.000  Hf
  Hf66     1.0000 0.24869  0.64840  0.74645  Biso   1.000  Hf
  Hf67     1.0000 0.75508  0.13084  0.22542  Biso   1.000  Hf
  Hf68     1.0000 0.74704  0.14788  0.74172  Biso   1.000  Hf
  Hf69     1.0000 0.74782  0.64535  0.24474  Biso   1.000  Hf
  Hf70     1.0000 0.74850  0.64709  0.74462  Biso   1.000  Hf
  Hf71     1.0000 0.26016  0.12076  0.98078  Biso   1.000  Hf
  Hf72     1.0000 0.24133  0.10417  0.48887  Biso   1.000  Hf
  Hf73     1.0000 0.25209  0.60444  0.99830  Biso   1.000  Hf
  Hf74     1.0000 0.24538  0.60653  0.49728  Biso   1.000  Hf
  Hf75     1.0000 0.74131  0.09593  0.98197  Biso   1.000  Hf
  Hf76     1.0000 0.75786  0.09916  0.50228  Biso   1.000  Hf
  Hf77     1.0000 0.75161  0.60135  0.99479  Biso   1.000  Hf
  Hf78     1.0000 0.74451  0.60783  0.49378  Biso   1.000  Hf
  Hf79     1.0000 0.24434  0.35821  0.01202  Biso   1.000  Hf
  Hf80     1.0000 0.25109  0.35628  0.51282  Biso   1.000  Hf
  Hf81     1.0000 0.25233  0.85050  0.99628  Biso   1.000  Hf
  Hf82     1.0000 0.24813  0.85529  0.50889  Biso   1.000  Hf
  Hf83     1.0000 0.74664  0.34847  0.00751  Biso   1.000  Hf
  Hf84     1.0000 0.76294  0.36906  0.51582  Biso   1.000  Hf
  Hf85     1.0000 0.73897  0.84577  0.01253  Biso   1.000  Hf
  Hf86     1.0000 0.74861  0.85348  0.50807  Biso   1.000  Hf
  Hf87     1.0000 0.23836  0.41015  0.26690  Biso   1.000  Hf
  Hf88     1.0000 0.24464  0.40005  0.76225  Biso   1.000  Hf
  Hf89     1.0000 0.26259  0.88481  0.26347  Biso   1.000  Hf
  Hf90     1.0000 0.25096  0.89970  0.75222  Biso   1.000  Hf
  Hf91     1.0000 0.75623  0.40152  0.24831  Biso   1.000  Hf
  Hf92     1.0000 0.74329  0.39786  0.76273  Biso   1.000  Hf
  Hf93     1.0000 0.74696  0.89225  0.25961  Biso   1.000  Hf
  Hf94     1.0000 0.75000  0.89512  0.75756  Biso   1.000  Hf
