data_image0
_cell_length_a       10.1195
_cell_length_b       10.2926
_cell_length_c       10.54
_cell_angle_alpha    90
_cell_angle_beta     90
_cell_angle_gamma    90

_symmetry_space_group_name_H-M    "P 1"
_symmetry_int_tables_number       1

loop_
  _symmetry_equiv_pos_as_xyz
  'x, y, z'

loop_
  _atom_site_label
  _atom_site_occupancy
  _atom_site_fract_x
  _atom_site_fract_y
  _atom_site_fract_z
  _atom_site_thermal_displace_type
  _atom_site_B_iso_or_equiv
  _atom_site_type_symbol
  La1      1.0000 0.12614  0.00724  0.16158  Biso   1.000  La
  Hf1      1.0000 0.13931  0.02080  0.67169  Biso   1.000  Hf
  Hf2      1.0000 0.14048  0.51892  0.17101  Biso   1.000  Hf
  Hf3      1.0000 0.13818  0.52114  0.67090  Biso   1.000  Hf
  Hf4      1.0000 0.13689  0.22769  0.42539  Biso   1.000  Hf
  Hf5      1.0000 0.13331  0.23470  0.91418  Biso   1.000  Hf
  Hf6      1.0000 0.13977  0.72658  0.42178  Biso   1.000  Hf
  Hf7      1.0000 0.14019  0.72683  0.92041  Biso   1.000  Hf
  La2      1.0000 0.36246  0.25894  0.16509  Biso   1.000  La
  Hf8      1.0000 0.36019  0.27090  0.67170  Biso   1.000  Hf
  Hf9      1.0000 0.36640  0.76630  0.17063  Biso   1.000  Hf
  Hf10     1.0000 0.36003  0.77086  0.67057  Biso   1.000  Hf
  Hf11     1.0000 0.35982  0.47663  0.42250  Biso   1.000  Hf
  Hf12     1.0000 0.36107  0.48196  0.91953  Biso   1.000  Hf
  Hf13     1.0000 0.36049  0.97684  0.42360  Biso   1.000  Hf
  Hf14     1.0000 0.36240  0.97747  0.91676  Biso   1.000  Hf
  Hf15     1.0000 0.64387  0.01639  0.07739  Biso   1.000  Hf
  Hf16     1.0000 0.63584  0.02181  0.58169  Biso   1.000  Hf
  Hf17     1.0000 0.63943  0.52128  0.07546  Biso   1.000  Hf
  Hf18     1.0000 0.63747  0.52190  0.57680  Biso   1.000  Hf
  Hf19     1.0000 0.64344  0.23238  0.33524  Biso   1.000  Hf
  Hf20     1.0000 0.63806  0.22960  0.82985  Biso   1.000  Hf
  Hf21     1.0000 0.63918  0.72812  0.32911  Biso   1.000  Hf
  Hf22     1.0000 0.63836  0.72958  0.82417  Biso   1.000  Hf
  Hf23     1.0000 0.85831  0.27443  0.07788  Biso   1.000  Hf
  Hf24     1.0000 0.86074  0.27232  0.58098  Biso   1.000  Hf
  Hf25     1.0000 0.85903  0.76286  0.07492  Biso   1.000  Hf
  Hf26     1.0000 0.86227  0.77130  0.57845  Biso   1.000  Hf
  Hf27     1.0000 0.86253  0.48062  0.32832  Biso   1.000  Hf
  Hf28     1.0000 0.85886  0.48043  0.82536  Biso   1.000  Hf
  Hf29     1.0000 0.85231  0.97950  0.33724  Biso   1.000  Hf
  Hf30     1.0000 0.86201  0.97928  0.82843  Biso   1.000  Hf
  Hf31     1.0000 0.03177  0.18774  0.07857  Biso   1.000  Hf
  Hf32     1.0000 0.03156  0.16711  0.58876  Biso   1.000  Hf
  Hf33     1.0000 0.03449  0.66545  0.08165  Biso   1.000  Hf
  Hf34     1.0000 0.03159  0.66367  0.58209  Biso   1.000  Hf
  Hf35     1.0000 0.01495  0.09089  0.34686  Biso   1.000  Hf
  Hf36     1.0000 0.03113  0.08536  0.83209  Biso   1.000  Hf
  Hf37     1.0000 0.03198  0.58849  0.33138  Biso   1.000  Hf
  Hf38     1.0000 0.03045  0.58644  0.83000  Biso   1.000  Hf
  Hf39     1.0000 0.46952  0.42926  0.07709  Biso   1.000  Hf
  Hf40     1.0000 0.46655  0.41792  0.58749  Biso   1.000  Hf
  Hf41     1.0000 0.46821  0.92052  0.08452  Biso   1.000  Hf
  Hf42     1.0000 0.46669  0.91505  0.58513  Biso   1.000  Hf
  Hf43     1.0000 0.47684  0.33854  0.34663  Biso   1.000  Hf
  Hf44     1.0000 0.46532  0.33332  0.83506  Biso   1.000  Hf
  Hf45     1.0000 0.47151  0.83622  0.33351  Biso   1.000  Hf
  Hf46     1.0000 0.46948  0.83520  0.82853  Biso   1.000  Hf
  Hf47     1.0000 0.26649  0.11513  0.31308  Biso   1.000  Hf
  Hf48     1.0000 0.27512  0.12383  0.78777  Biso   1.000  Hf
  Hf49     1.0000 0.27887  0.61862  0.29369  Biso   1.000  Hf
  Hf50     1.0000 0.27477  0.62526  0.79373  Biso   1.000  Hf
  Hf51     1.0000 0.26401  0.11790  0.01867  Biso   1.000  Hf
  Hf52     1.0000 0.27486  0.12555  0.54887  Biso   1.000  Hf
  Hf53     1.0000 0.27643  0.62167  0.04581  Biso   1.000  Hf
  Hf54     1.0000 0.27463  0.62568  0.54483  Biso   1.000  Hf
  Hf55     1.0000 0.21588  0.37692  0.30347  Biso   1.000  Hf
  Hf56     1.0000 0.22461  0.37579  0.79105  Biso   1.000  Hf
  Hf57     1.0000 0.23393  0.85944  0.29994  Biso   1.000  Hf
  Hf58     1.0000 0.22392  0.87379  0.79205  Biso   1.000  Hf
  Hf59     1.0000 0.21445  0.38462  0.03346  Biso   1.000  Hf
  Hf60     1.0000 0.22433  0.37549  0.54707  Biso   1.000  Hf
  Hf61     1.0000 0.24487  0.85804  0.03362  Biso   1.000  Hf
  Hf62     1.0000 0.22381  0.87547  0.54576  Biso   1.000  Hf
  Hf63     1.0000 0.56254  0.16514  0.16949  Biso   1.000  Hf
  Hf64     1.0000 0.53259  0.16587  0.66823  Biso   1.000  Hf
  Hf65     1.0000 0.53736  0.66658  0.16599  Biso   1.000  Hf
  Hf66     1.0000 0.53199  0.66616  0.66406  Biso   1.000  Hf
  Hf67     1.0000 0.53205  0.08491  0.41799  Biso   1.000  Hf
  Hf68     1.0000 0.53303  0.08572  0.91765  Biso   1.000  Hf
  Hf69     1.0000 0.53118  0.58674  0.41772  Biso   1.000  Hf
  Hf70     1.0000 0.53263  0.58959  0.91252  Biso   1.000  Hf
  Hf71     1.0000 0.96399  0.42077  0.16545  Biso   1.000  Hf
  Hf72     1.0000 0.96658  0.41683  0.66506  Biso   1.000  Hf
  Hf73     1.0000 0.93661  0.90469  0.17696  Biso   1.000  Hf
  Hf74     1.0000 0.96762  0.91253  0.66989  Biso   1.000  Hf
  Hf75     1.0000 0.96565  0.33705  0.41923  Biso   1.000  Hf
  Hf76     1.0000 0.95891  0.33681  0.90955  Biso   1.000  Hf
  Hf77     1.0000 0.96940  0.83795  0.42008  Biso   1.000  Hf
  Hf78     1.0000 0.97350  0.84186  0.92436  Biso   1.000  Hf
  Hf79     1.0000 0.77626  0.12352  0.95607  Biso   1.000  Hf
  Hf80     1.0000 0.77065  0.12613  0.46212  Biso   1.000  Hf
  Hf81     1.0000 0.77487  0.62246  0.95035  Biso   1.000  Hf
  Hf82     1.0000 0.77594  0.62543  0.45345  Biso   1.000  Hf
  Hf83     1.0000 0.78830  0.12842  0.20997  Biso   1.000  Hf
  Hf84     1.0000 0.77468  0.12657  0.70791  Biso   1.000  Hf
  Hf85     1.0000 0.77680  0.62769  0.20419  Biso   1.000  Hf
  Hf86     1.0000 0.77416  0.62716  0.70146  Biso   1.000  Hf
  Hf87     1.0000 0.72001  0.37503  0.95410  Biso   1.000  Hf
  Hf88     1.0000 0.72712  0.37721  0.45769  Biso   1.000  Hf
  Hf89     1.0000 0.72664  0.87099  0.95289  Biso   1.000  Hf
  Hf90     1.0000 0.72307  0.87321  0.45885  Biso   1.000  Hf
  Hf91     1.0000 0.72409  0.37942  0.20766  Biso   1.000  Hf
  Hf92     1.0000 0.72311  0.37665  0.70497  Biso   1.000  Hf
  Hf93     1.0000 0.70968  0.87811  0.20849  Biso   1.000  Hf
  Hf94     1.0000 0.72525  0.87750  0.70478  Biso   1.000  Hf
