data_image0
_cell_length_a       10.0222
_cell_length_b       10.4156
_cell_length_c       10.0855
_cell_angle_alpha    90
_cell_angle_beta     90
_cell_angle_gamma    90

_symmetry_space_group_name_H-M    "P 1"
_symmetry_int_tables_number       1

loop_
  _symmetry_equiv_pos_as_xyz
  'x, y, z'

loop_
  _atom_site_label
  _atom_site_occupancy
  _atom_site_fract_x
  _atom_site_fract_y
  _atom_site_fract_z
  _atom_site_thermal_displace_type
  _atom_site_B_iso_or_equiv
  _atom_site_type_symbol
  Hf1      1.0000 0.14513  0.99863  0.11236  Biso   1.000  Hf
  Hf2      1.0000 0.14001  0.01595  0.62540  Biso   1.000  Hf
  Hf3      1.0000 0.13496  0.52168  0.12599  Biso   1.000  Hf
  Hf4      1.0000 0.13646  0.52036  0.62551  Biso   1.000  Hf
  Hf5      1.0000 0.62723  0.01271  0.12271  Biso   1.000  Hf
  Hf6      1.0000 0.63636  0.01795  0.62636  Biso   1.000  Hf
  Hf7      1.0000 0.63762  0.51415  0.12698  Biso   1.000  Hf
  Hf8      1.0000 0.63967  0.51724  0.62481  Biso   1.000  Hf
  Hf9      1.0000 0.15185  0.24153  0.39728  Biso   1.000  Hf
  Hf10     1.0000 0.14161  0.23539  0.86867  Biso   1.000  Hf
  Hf11     1.0000 0.13872  0.73257  0.37658  Biso   1.000  Hf
  Hf12     1.0000 0.13817  0.73155  0.87200  Biso   1.000  Hf
  Hf13     1.0000 0.63027  0.23693  0.37354  Biso   1.000  Hf
  Hf14     1.0000 0.63624  0.23623  0.87515  Biso   1.000  Hf
  Hf15     1.0000 0.63852  0.73310  0.37670  Biso   1.000  Hf
  Hf16     1.0000 0.63780  0.73400  0.87512  Biso   1.000  Hf
  Hf17     1.0000 0.36006  0.26740  0.12420  Biso   1.000  Hf
  Hf18     1.0000 0.37553  0.27039  0.63117  Biso   1.000  Hf
  Hf19     1.0000 0.37151  0.76060  0.12533  Biso   1.000  Hf
  Hf20     1.0000 0.37198  0.76702  0.62226  Biso   1.000  Hf
  La1      1.0000 0.88340  0.25304  0.12269  Biso   1.000  La
  Hf21     1.0000 0.86817  0.26868  0.62627  Biso   1.000  Hf
  Hf22     1.0000 0.86609  0.76754  0.12105  Biso   1.000  Hf
  Hf23     1.0000 0.86792  0.76633  0.62857  Biso   1.000  Hf
  Hf24     1.0000 0.37198  0.48630  0.37431  Biso   1.000  Hf
  Hf25     1.0000 0.37077  0.48595  0.87730  Biso   1.000  Hf
  Hf26     1.0000 0.37115  0.98494  0.37248  Biso   1.000  Hf
  Hf27     1.0000 0.37432  0.98283  0.87107  Biso   1.000  Hf
  Hf28     1.0000 0.86912  0.48512  0.37511  Biso   1.000  Hf
  Hf29     1.0000 0.87031  0.48617  0.87184  Biso   1.000  Hf
  La2      1.0000 0.87176  0.98953  0.38124  Biso   1.000  La
  Hf30     1.0000 0.86818  0.98538  0.87618  Biso   1.000  Hf
  Hf31     1.0000 0.04395  0.18757  0.68913  Biso   1.000  Hf
  Hf32     1.0000 0.03798  0.69196  0.19471  Biso   1.000  Hf
  Hf33     1.0000 0.03788  0.68225  0.69882  Biso   1.000  Hf
  Hf34     1.0000 0.50970  0.17436  0.20795  Biso   1.000  Hf
  Hf35     1.0000 0.53754  0.18265  0.70106  Biso   1.000  Hf
  Hf36     1.0000 0.53557  0.67892  0.19726  Biso   1.000  Hf
  Hf37     1.0000 0.54011  0.68566  0.69447  Biso   1.000  Hf
  Hf38     1.0000 0.06209  0.07435  0.45043  Biso   1.000  Hf
  Hf39     1.0000 0.03122  0.08280  0.95823  Biso   1.000  Hf
  Hf40     1.0000 0.04378  0.56093  0.44268  Biso   1.000  Hf
  Hf41     1.0000 0.03771  0.57083  0.94748  Biso   1.000  Hf
  Hf42     1.0000 0.53697  0.06289  0.44782  Biso   1.000  Hf
  Hf43     1.0000 0.53222  0.07004  0.94593  Biso   1.000  Hf
  Hf44     1.0000 0.53788  0.56848  0.44721  Biso   1.000  Hf
  Hf45     1.0000 0.53894  0.56831  0.94635  Biso   1.000  Hf
  Hf46     1.0000 0.46330  0.43206  0.19429  Biso   1.000  Hf
  Hf47     1.0000 0.47233  0.43541  0.70034  Biso   1.000  Hf
  Hf48     1.0000 0.45727  0.93307  0.19047  Biso   1.000  Hf
  Hf49     1.0000 0.46934  0.93334  0.69481  Biso   1.000  Hf
  Hf50     1.0000 0.97259  0.44184  0.19906  Biso   1.000  Hf
  Hf51     1.0000 0.96467  0.43890  0.68330  Biso   1.000  Hf
  Hf52     1.0000 0.96473  0.94827  0.17075  Biso   1.000  Hf
  Hf53     1.0000 0.96917  0.93769  0.69360  Biso   1.000  Hf
  Hf54     1.0000 0.46762  0.32217  0.45104  Biso   1.000  Hf
  Hf55     1.0000 0.46579  0.31778  0.94774  Biso   1.000  Hf
  Hf56     1.0000 0.46432  0.81745  0.43801  Biso   1.000  Hf
  Hf57     1.0000 0.47186  0.81774  0.94670  Biso   1.000  Hf
  Hf58     1.0000 0.96501  0.30670  0.43076  Biso   1.000  Hf
  Hf59     1.0000 0.97323  0.32447  0.91834  Biso   1.000  Hf
  Hf60     1.0000 0.97718  0.80478  0.45913  Biso   1.000  Hf
  Hf61     1.0000 0.97186  0.82143  0.94037  Biso   1.000  Hf
  Hf62     1.0000 0.23094  0.12341  0.24572  Biso   1.000  Hf
  Hf63     1.0000 0.27395  0.11743  0.74973  Biso   1.000  Hf
  Hf64     1.0000 0.27258  0.61608  0.24871  Biso   1.000  Hf
  Hf65     1.0000 0.27535  0.61805  0.74869  Biso   1.000  Hf
  Hf66     1.0000 0.74251  0.11886  0.24596  Biso   1.000  Hf
  Hf67     1.0000 0.77664  0.12042  0.74847  Biso   1.000  Hf
  Hf68     1.0000 0.77407  0.61812  0.24897  Biso   1.000  Hf
  Hf69     1.0000 0.77258  0.61902  0.74895  Biso   1.000  Hf
  Hf70     1.0000 0.29059  0.13592  0.50236  Biso   1.000  Hf
  Hf71     1.0000 0.27290  0.12957  0.99851  Biso   1.000  Hf
  Hf72     1.0000 0.27428  0.63375  0.49930  Biso   1.000  Hf
  Hf73     1.0000 0.27511  0.63372  0.99803  Biso   1.000  Hf
  Hf74     1.0000 0.75618  0.14701  0.50807  Biso   1.000  Hf
  Hf75     1.0000 0.76083  0.12469  0.99124  Biso   1.000  Hf
  Hf76     1.0000 0.77611  0.63196  0.49937  Biso   1.000  Hf
  Hf77     1.0000 0.77446  0.63482  0.99931  Biso   1.000  Hf
  Hf78     1.0000 0.23822  0.38640  0.50540  Biso   1.000  Hf
  Hf79     1.0000 0.22553  0.38292  0.00032  Biso   1.000  Hf
  Hf80     1.0000 0.23799  0.88533  0.49713  Biso   1.000  Hf
  Hf81     1.0000 0.23859  0.87789  0.99210  Biso   1.000  Hf
  Hf82     1.0000 0.73694  0.38727  0.50061  Biso   1.000  Hf
  Hf83     1.0000 0.73434  0.38561  0.99536  Biso   1.000  Hf
  Hf84     1.0000 0.72035  0.87069  0.50993  Biso   1.000  Hf
  Hf85     1.0000 0.73379  0.88234  0.99771  Biso   1.000  Hf
  Hf86     1.0000 0.22830  0.36639  0.25288  Biso   1.000  Hf
  Hf87     1.0000 0.23611  0.37082  0.75000  Biso   1.000  Hf
  Hf88     1.0000 0.23178  0.86350  0.24627  Biso   1.000  Hf
  Hf89     1.0000 0.23549  0.86537  0.74623  Biso   1.000  Hf
  Hf90     1.0000 0.72256  0.37486  0.25406  Biso   1.000  Hf
  Hf91     1.0000 0.73299  0.36875  0.74835  Biso   1.000  Hf
  Hf92     1.0000 0.72455  0.86024  0.24142  Biso   1.000  Hf
  Hf93     1.0000 0.73573  0.87083  0.75374  Biso   1.000  Hf
