data_image0
_cell_length_a       10.1164
_cell_length_b       10.3046
_cell_length_c       10.4559
_cell_angle_alpha    90
_cell_angle_beta     90
_cell_angle_gamma    90

_symmetry_space_group_name_H-M    "P 1"
_symmetry_int_tables_number       1

loop_
  _symmetry_equiv_pos_as_xyz
  'x, y, z'

loop_
  _atom_site_label
  _atom_site_occupancy
  _atom_site_fract_x
  _atom_site_fract_y
  _atom_site_fract_z
  _atom_site_thermal_displace_type
  _atom_site_B_iso_or_equiv
  _atom_site_type_symbol
  La1      1.0000 0.12924  0.00084  0.16009  Biso   1.000  La
  Hf1      1.0000 0.13036  0.02121  0.67085  Biso   1.000  Hf
  Hf2      1.0000 0.13814  0.52428  0.17179  Biso   1.000  Hf
  Hf3      1.0000 0.13063  0.52185  0.67018  Biso   1.000  Hf
  Hf4      1.0000 0.13215  0.22764  0.41892  Biso   1.000  Hf
  Hf5      1.0000 0.13703  0.23614  0.91175  Biso   1.000  Hf
  Hf6      1.0000 0.13505  0.72934  0.42263  Biso   1.000  Hf
  Hf7      1.0000 0.13057  0.72855  0.91935  Biso   1.000  Hf
  Hf8      1.0000 0.35166  0.26986  0.16901  Biso   1.000  Hf
  Hf9      1.0000 0.35462  0.27031  0.66806  Biso   1.000  Hf
  Hf10     1.0000 0.36680  0.76416  0.17076  Biso   1.000  Hf
  Hf11     1.0000 0.35423  0.77032  0.67053  Biso   1.000  Hf
  Hf12     1.0000 0.35361  0.47894  0.42085  Biso   1.000  Hf
  Hf13     1.0000 0.35473  0.48117  0.92027  Biso   1.000  Hf
  Hf14     1.0000 0.35752  0.97924  0.42182  Biso   1.000  Hf
  Hf15     1.0000 0.35549  0.97710  0.91551  Biso   1.000  Hf
  Hf16     1.0000 0.63414  0.01769  0.08140  Biso   1.000  Hf
  Hf17     1.0000 0.63184  0.02087  0.58195  Biso   1.000  Hf
  Hf18     1.0000 0.64184  0.51546  0.07928  Biso   1.000  Hf
  Hf19     1.0000 0.63265  0.51989  0.57901  Biso   1.000  Hf
  Hf20     1.0000 0.62682  0.23257  0.33272  Biso   1.000  Hf
  Hf21     1.0000 0.63145  0.23070  0.82912  Biso   1.000  Hf
  Hf22     1.0000 0.63610  0.72619  0.33100  Biso   1.000  Hf
  Hf23     1.0000 0.63240  0.72789  0.82832  Biso   1.000  Hf
  La2      1.0000 0.87305  0.25818  0.09118  Biso   1.000  La
  Hf24     1.0000 0.85491  0.27159  0.57873  Biso   1.000  Hf
  Hf25     1.0000 0.85710  0.76776  0.07913  Biso   1.000  Hf
  Hf26     1.0000 0.85673  0.77184  0.57967  Biso   1.000  Hf
  Hf27     1.0000 0.85905  0.48365  0.33163  Biso   1.000  Hf
  Hf28     1.0000 0.85349  0.47755  0.82784  Biso   1.000  Hf
  Hf29     1.0000 0.84710  0.98125  0.33502  Biso   1.000  Hf
  Hf30     1.0000 0.85356  0.97856  0.83080  Biso   1.000  Hf
  Hf31     1.0000 0.08000  0.20279  0.09372  Biso   1.000  Hf
  Hf32     1.0000 0.02895  0.17195  0.58899  Biso   1.000  Hf
  Hf33     1.0000 0.04300  0.68991  0.09736  Biso   1.000  Hf
  Hf34     1.0000 0.03007  0.67404  0.58998  Biso   1.000  Hf
  Hf35     1.0000 0.01489  0.08633  0.34191  Biso   1.000  Hf
  Hf36     1.0000 0.02870  0.07861  0.84468  Biso   1.000  Hf
  Hf37     1.0000 0.03525  0.58067  0.34391  Biso   1.000  Hf
  Hf38     1.0000 0.02744  0.57923  0.83821  Biso   1.000  Hf
  Hf39     1.0000 0.46943  0.41123  0.08188  Biso   1.000  Hf
  Hf40     1.0000 0.46192  0.41299  0.58176  Biso   1.000  Hf
  Hf41     1.0000 0.47053  0.91122  0.08211  Biso   1.000  Hf
  Hf42     1.0000 0.46225  0.91300  0.58299  Biso   1.000  Hf
  Hf43     1.0000 0.45721  0.33692  0.33208  Biso   1.000  Hf
  Hf44     1.0000 0.45913  0.33581  0.83090  Biso   1.000  Hf
  Hf45     1.0000 0.47127  0.83765  0.33187  Biso   1.000  Hf
  Hf46     1.0000 0.46297  0.83673  0.82858  Biso   1.000  Hf
  Hf47     1.0000 0.27392  0.12687  0.30086  Biso   1.000  Hf
  Hf48     1.0000 0.26774  0.12401  0.78858  Biso   1.000  Hf
  Hf49     1.0000 0.27567  0.62164  0.29531  Biso   1.000  Hf
  Hf50     1.0000 0.26816  0.62577  0.79437  Biso   1.000  Hf
  Hf51     1.0000 0.29086  0.13026  0.03102  Biso   1.000  Hf
  Hf52     1.0000 0.26773  0.12505  0.54429  Biso   1.000  Hf
  Hf53     1.0000 0.27618  0.62159  0.04517  Biso   1.000  Hf
  Hf54     1.0000 0.26934  0.62562  0.54550  Biso   1.000  Hf
  Hf55     1.0000 0.21580  0.37483  0.29228  Biso   1.000  Hf
  Hf56     1.0000 0.22057  0.37677  0.78885  Biso   1.000  Hf
  Hf57     1.0000 0.23369  0.86156  0.30128  Biso   1.000  Hf
  Hf58     1.0000 0.21605  0.87300  0.79084  Biso   1.000  Hf
  Hf59     1.0000 0.22873  0.38369  0.03798  Biso   1.000  Hf
  Hf60     1.0000 0.21720  0.37646  0.54211  Biso   1.000  Hf
  Hf61     1.0000 0.24687  0.86030  0.03091  Biso   1.000  Hf
  Hf62     1.0000 0.21836  0.87819  0.54553  Biso   1.000  Hf
  Hf63     1.0000 0.52250  0.16459  0.16738  Biso   1.000  Hf
  Hf64     1.0000 0.52507  0.16351  0.66833  Biso   1.000  Hf
  Hf65     1.0000 0.53282  0.65740  0.16969  Biso   1.000  Hf
  Hf66     1.0000 0.52483  0.66231  0.66782  Biso   1.000  Hf
  Hf67     1.0000 0.52519  0.08676  0.42150  Biso   1.000  Hf
  Hf68     1.0000 0.51865  0.08941  0.91843  Biso   1.000  Hf
  Hf69     1.0000 0.52641  0.58466  0.41907  Biso   1.000  Hf
  Hf70     1.0000 0.52349  0.58914  0.91946  Biso   1.000  Hf
  Hf71     1.0000 0.95960  0.44685  0.16195  Biso   1.000  Hf
  Hf72     1.0000 0.95679  0.42471  0.65692  Biso   1.000  Hf
  Hf73     1.0000 0.91919  0.94444  0.14782  Biso   1.000  Hf
  Hf74     1.0000 0.95774  0.92156  0.66324  Biso   1.000  Hf
  Hf75     1.0000 0.95760  0.32993  0.40938  Biso   1.000  Hf
  Hf76     1.0000 0.96216  0.32978  0.89636  Biso   1.000  Hf
  Hf77     1.0000 0.96059  0.83102  0.40871  Biso   1.000  Hf
  Hf78     1.0000 0.95765  0.83135  0.91488  Biso   1.000  Hf
  Hf79     1.0000 0.75544  0.11372  0.95056  Biso   1.000  Hf
  Hf80     1.0000 0.76632  0.12486  0.46154  Biso   1.000  Hf
  Hf81     1.0000 0.76848  0.62282  0.95584  Biso   1.000  Hf
  Hf82     1.0000 0.77118  0.62443  0.45756  Biso   1.000  Hf
  Hf83     1.0000 0.74723  0.11593  0.22093  Biso   1.000  Hf
  Hf84     1.0000 0.76922  0.12723  0.70675  Biso   1.000  Hf
  Hf85     1.0000 0.77475  0.62830  0.20697  Biso   1.000  Hf
  Hf86     1.0000 0.76915  0.62710  0.70526  Biso   1.000  Hf
  Hf87     1.0000 0.71101  0.37829  0.94882  Biso   1.000  Hf
  Hf88     1.0000 0.71863  0.37533  0.45819  Biso   1.000  Hf
  Hf89     1.0000 0.71227  0.87032  0.95526  Biso   1.000  Hf
  Hf90     1.0000 0.71857  0.87381  0.45901  Biso   1.000  Hf
  Hf91     1.0000 0.71394  0.38237  0.21585  Biso   1.000  Hf
  Hf92     1.0000 0.71774  0.37510  0.70408  Biso   1.000  Hf
  Hf93     1.0000 0.71335  0.86839  0.20789  Biso   1.000  Hf
  Hf94     1.0000 0.71894  0.87547  0.70655  Biso   1.000  Hf
