data_image0
_cell_length_a       10.0479
_cell_length_b       10.4102
_cell_length_c       10.1015
_cell_angle_alpha    90
_cell_angle_beta     90
_cell_angle_gamma    90

_symmetry_space_group_name_H-M    "P 1"
_symmetry_int_tables_number       1

loop_
  _symmetry_equiv_pos_as_xyz
  'x, y, z'

loop_
  _atom_site_label
  _atom_site_occupancy
  _atom_site_fract_x
  _atom_site_fract_y
  _atom_site_fract_z
  _atom_site_thermal_displace_type
  _atom_site_B_iso_or_equiv
  _atom_site_type_symbol
  La1      1.0000 0.12413  0.00704  0.12109  Biso   1.000  La
  Hf1      1.0000 0.12559  0.01634  0.62387  Biso   1.000  Hf
  Hf2      1.0000 0.13581  0.51716  0.12385  Biso   1.000  Hf
  Hf3      1.0000 0.12610  0.51777  0.62900  Biso   1.000  Hf
  Hf4      1.0000 0.63325  0.01163  0.11851  Biso   1.000  Hf
  Hf5      1.0000 0.62795  0.01578  0.62801  Biso   1.000  Hf
  Hf6      1.0000 0.63427  0.51537  0.12607  Biso   1.000  Hf
  Hf7      1.0000 0.62810  0.51581  0.62757  Biso   1.000  Hf
  Hf8      1.0000 0.13163  0.23577  0.37714  Biso   1.000  Hf
  Hf9      1.0000 0.12589  0.23521  0.87006  Biso   1.000  Hf
  Hf10     1.0000 0.12993  0.73385  0.37777  Biso   1.000  Hf
  Hf11     1.0000 0.12837  0.73360  0.87622  Biso   1.000  Hf
  La2      1.0000 0.61702  0.24241  0.36779  Biso   1.000  La
  Hf12     1.0000 0.62651  0.23278  0.87587  Biso   1.000  Hf
  Hf13     1.0000 0.62833  0.73209  0.37806  Biso   1.000  Hf
  Hf14     1.0000 0.62842  0.73123  0.87514  Biso   1.000  Hf
  Hf15     1.0000 0.36174  0.26628  0.12172  Biso   1.000  Hf
  Hf16     1.0000 0.35564  0.26553  0.63132  Biso   1.000  Hf
  Hf17     1.0000 0.36999  0.76301  0.12529  Biso   1.000  Hf
  Hf18     1.0000 0.35973  0.76584  0.62642  Biso   1.000  Hf
  Hf19     1.0000 0.86502  0.26796  0.12273  Biso   1.000  Hf
  Hf20     1.0000 0.85943  0.26674  0.62325  Biso   1.000  Hf
  Hf21     1.0000 0.86014  0.76421  0.12897  Biso   1.000  Hf
  Hf22     1.0000 0.85966  0.76531  0.62535  Biso   1.000  Hf
  Hf23     1.0000 0.35627  0.48532  0.37830  Biso   1.000  Hf
  Hf24     1.0000 0.35980  0.48379  0.87524  Biso   1.000  Hf
  Hf25     1.0000 0.35916  0.98182  0.37654  Biso   1.000  Hf
  Hf26     1.0000 0.36192  0.98222  0.87111  Biso   1.000  Hf
  Hf27     1.0000 0.86542  0.48683  0.37638  Biso   1.000  Hf
  Hf28     1.0000 0.85882  0.48226  0.87558  Biso   1.000  Hf
  Hf29     1.0000 0.85621  0.98280  0.38238  Biso   1.000  Hf
  Hf30     1.0000 0.85662  0.98271  0.87118  Biso   1.000  Hf
  Hf31     1.0000 0.03060  0.19881  0.20122  Biso   1.000  Hf
  Hf32     1.0000 0.03292  0.18862  0.68408  Biso   1.000  Hf
  Hf33     1.0000 0.03382  0.68556  0.19739  Biso   1.000  Hf
  Hf34     1.0000 0.02767  0.68446  0.69833  Biso   1.000  Hf
  Hf35     1.0000 0.53477  0.17761  0.15759  Biso   1.000  Hf
  Hf36     1.0000 0.52788  0.18419  0.69287  Biso   1.000  Hf
  Hf37     1.0000 0.53300  0.67677  0.19836  Biso   1.000  Hf
  Hf38     1.0000 0.52829  0.68207  0.69754  Biso   1.000  Hf
  Hf39     1.0000 0.03226  0.06432  0.43781  Biso   1.000  Hf
  Hf40     1.0000 0.02318  0.07419  0.91724  Biso   1.000  Hf
  Hf41     1.0000 0.03060  0.56951  0.44970  Biso   1.000  Hf
  Hf42     1.0000 0.02646  0.56954  0.94551  Biso   1.000  Hf
  Hf43     1.0000 0.52291  0.05296  0.45601  Biso   1.000  Hf
  Hf44     1.0000 0.53555  0.05904  0.92975  Biso   1.000  Hf
  Hf45     1.0000 0.53052  0.56214  0.44715  Biso   1.000  Hf
  Hf46     1.0000 0.52660  0.56632  0.94839  Biso   1.000  Hf
  Hf47     1.0000 0.47270  0.42304  0.20735  Biso   1.000  Hf
  Hf48     1.0000 0.45916  0.43376  0.69805  Biso   1.000  Hf
  Hf49     1.0000 0.46471  0.93280  0.19661  Biso   1.000  Hf
  Hf50     1.0000 0.45907  0.92927  0.69599  Biso   1.000  Hf
  Hf51     1.0000 0.96893  0.43881  0.19658  Biso   1.000  Hf
  Hf52     1.0000 0.96044  0.43328  0.70001  Biso   1.000  Hf
  Hf53     1.0000 0.94063  0.92521  0.20786  Biso   1.000  Hf
  Hf54     1.0000 0.95515  0.93408  0.69171  Biso   1.000  Hf
  Hf55     1.0000 0.43443  0.32116  0.45701  Biso   1.000  Hf
  Hf56     1.0000 0.45620  0.31776  0.94030  Biso   1.000  Hf
  Hf57     1.0000 0.45879  0.81115  0.44769  Biso   1.000  Hf
  Hf58     1.0000 0.46734  0.81705  0.95017  Biso   1.000  Hf
  Hf59     1.0000 0.95983  0.31767  0.44459  Biso   1.000  Hf
  Hf60     1.0000 0.95908  0.31939  0.94744  Biso   1.000  Hf
  Hf61     1.0000 0.96096  0.81630  0.44967  Biso   1.000  Hf
  Hf62     1.0000 0.96732  0.82497  0.95684  Biso   1.000  Hf
  Hf63     1.0000 0.28250  0.12810  0.25641  Biso   1.000  Hf
  Hf64     1.0000 0.26184  0.11510  0.74758  Biso   1.000  Hf
  Hf65     1.0000 0.26747  0.61438  0.24785  Biso   1.000  Hf
  Hf66     1.0000 0.26350  0.61805  0.74965  Biso   1.000  Hf
  Hf67     1.0000 0.77078  0.11072  0.24242  Biso   1.000  Hf
  Hf68     1.0000 0.76266  0.11897  0.75048  Biso   1.000  Hf
  Hf69     1.0000 0.76823  0.61962  0.25046  Biso   1.000  Hf
  Hf70     1.0000 0.76410  0.61567  0.74912  Biso   1.000  Hf
  Hf71     1.0000 0.26100  0.13179  0.50304  Biso   1.000  Hf
  Hf72     1.0000 0.26739  0.13644  0.98918  Biso   1.000  Hf
  Hf73     1.0000 0.26439  0.63287  0.50019  Biso   1.000  Hf
  Hf74     1.0000 0.26345  0.62997  0.99904  Biso   1.000  Hf
  Hf75     1.0000 0.77141  0.12486  0.50668  Biso   1.000  Hf
  Hf76     1.0000 0.76561  0.13070  0.99722  Biso   1.000  Hf
  Hf77     1.0000 0.76412  0.63536  0.49935  Biso   1.000  Hf
  Hf78     1.0000 0.76184  0.62970  0.99882  Biso   1.000  Hf
  Hf79     1.0000 0.21370  0.38557  0.50143  Biso   1.000  Hf
  Hf80     1.0000 0.22275  0.38371  0.99909  Biso   1.000  Hf
  Hf81     1.0000 0.22394  0.88237  0.50013  Biso   1.000  Hf
  Hf82     1.0000 0.23773  0.87120  0.98959  Biso   1.000  Hf
  Hf83     1.0000 0.73686  0.39413  0.50589  Biso   1.000  Hf
  Hf84     1.0000 0.72042  0.38178  0.99617  Biso   1.000  Hf
  Hf85     1.0000 0.72170  0.87947  0.50224  Biso   1.000  Hf
  Hf86     1.0000 0.72655  0.87789  0.99835  Biso   1.000  Hf
  Hf87     1.0000 0.22809  0.37074  0.24981  Biso   1.000  Hf
  Hf88     1.0000 0.22352  0.36996  0.75028  Biso   1.000  Hf
  Hf89     1.0000 0.24058  0.85385  0.25588  Biso   1.000  Hf
  Hf90     1.0000 0.22204  0.86701  0.74629  Biso   1.000  Hf
  Hf91     1.0000 0.74185  0.37838  0.24035  Biso   1.000  Hf
  Hf92     1.0000 0.72345  0.36585  0.74979  Biso   1.000  Hf
  Hf93     1.0000 0.71610  0.86418  0.25089  Biso   1.000  Hf
  Hf94     1.0000 0.72426  0.86500  0.75009  Biso   1.000  Hf
