data_image0
_cell_length_a       10.0676
_cell_length_b       10.4076
_cell_length_c       10.0891
_cell_angle_alpha    90
_cell_angle_beta     90
_cell_angle_gamma    90

_symmetry_space_group_name_H-M    "P 1"
_symmetry_int_tables_number       1

loop_
  _symmetry_equiv_pos_as_xyz
  'x, y, z'

loop_
  _atom_site_label
  _atom_site_occupancy
  _atom_site_fract_x
  _atom_site_fract_y
  _atom_site_fract_z
  _atom_site_thermal_displace_type
  _atom_site_B_iso_or_equiv
  _atom_site_type_symbol
  Hf1      1.0000 0.14296  0.99966  0.11244  Biso   1.000  Hf
  Hf2      1.0000 0.13851  0.01648  0.62634  Biso   1.000  Hf
  Hf3      1.0000 0.13394  0.51575  0.12621  Biso   1.000  Hf
  Hf4      1.0000 0.13218  0.51910  0.62670  Biso   1.000  Hf
  Hf5      1.0000 0.63179  0.01811  0.12386  Biso   1.000  Hf
  Hf6      1.0000 0.63084  0.01706  0.62317  Biso   1.000  Hf
  Hf7      1.0000 0.62994  0.52511  0.12612  Biso   1.000  Hf
  Hf8      1.0000 0.62874  0.52093  0.62837  Biso   1.000  Hf
  La1      1.0000 0.12745  0.25371  0.38061  Biso   1.000  La
  Hf9      1.0000 0.12991  0.23810  0.87393  Biso   1.000  Hf
  Hf10     1.0000 0.12998  0.73099  0.37561  Biso   1.000  Hf
  Hf11     1.0000 0.12897  0.73283  0.87268  Biso   1.000  Hf
  Hf12     1.0000 0.62827  0.23983  0.37477  Biso   1.000  Hf
  Hf13     1.0000 0.62556  0.23568  0.86961  Biso   1.000  Hf
  Hf14     1.0000 0.63161  0.73679  0.37849  Biso   1.000  Hf
  Hf15     1.0000 0.62893  0.73996  0.87428  Biso   1.000  Hf
  Hf16     1.0000 0.36652  0.26667  0.12138  Biso   1.000  Hf
  Hf17     1.0000 0.36495  0.26940  0.62640  Biso   1.000  Hf
  Hf18     1.0000 0.36641  0.76414  0.12503  Biso   1.000  Hf
  Hf19     1.0000 0.36209  0.76843  0.62126  Biso   1.000  Hf
  Hf20     1.0000 0.84227  0.27986  0.11312  Biso   1.000  Hf
  Hf21     1.0000 0.85826  0.26929  0.63251  Biso   1.000  Hf
  Hf22     1.0000 0.86342  0.76964  0.12283  Biso   1.000  Hf
  Hf23     1.0000 0.86177  0.76739  0.62957  Biso   1.000  Hf
  Hf24     1.0000 0.37039  0.48977  0.37228  Biso   1.000  Hf
  Hf25     1.0000 0.36297  0.48700  0.87507  Biso   1.000  Hf
  Hf26     1.0000 0.35944  0.98647  0.37346  Biso   1.000  Hf
  Hf27     1.0000 0.36388  0.98673  0.86986  Biso   1.000  Hf
  Hf28     1.0000 0.85685  0.48532  0.38109  Biso   1.000  Hf
  Hf29     1.0000 0.86509  0.49091  0.87139  Biso   1.000  Hf
  La2      1.0000 0.86274  0.99111  0.38102  Biso   1.000  La
  Hf30     1.0000 0.86101  0.98906  0.87477  Biso   1.000  Hf
  Hf31     1.0000 0.03016  0.18575  0.69794  Biso   1.000  Hf
  Hf32     1.0000 0.02761  0.67540  0.19640  Biso   1.000  Hf
  Hf33     1.0000 0.02974  0.68097  0.70011  Biso   1.000  Hf
  Hf34     1.0000 0.52946  0.18277  0.19485  Biso   1.000  Hf
  Hf35     1.0000 0.53022  0.18328  0.69705  Biso   1.000  Hf
  Hf36     1.0000 0.53005  0.68357  0.19936  Biso   1.000  Hf
  Hf37     1.0000 0.53067  0.68888  0.69623  Biso   1.000  Hf
  Hf38     1.0000 0.05563  0.06216  0.45610  Biso   1.000  Hf
  Hf39     1.0000 0.02904  0.07903  0.95944  Biso   1.000  Hf
  Hf40     1.0000 0.03755  0.55302  0.44149  Biso   1.000  Hf
  Hf41     1.0000 0.03008  0.56913  0.94908  Biso   1.000  Hf
  Hf42     1.0000 0.54006  0.06366  0.43473  Biso   1.000  Hf
  Hf43     1.0000 0.53230  0.06971  0.94474  Biso   1.000  Hf
  Hf44     1.0000 0.53112  0.57395  0.45001  Biso   1.000  Hf
  Hf45     1.0000 0.52971  0.57293  0.94663  Biso   1.000  Hf
  Hf46     1.0000 0.47098  0.43292  0.19506  Biso   1.000  Hf
  Hf47     1.0000 0.46498  0.43505  0.70111  Biso   1.000  Hf
  Hf48     1.0000 0.45592  0.93585  0.18836  Biso   1.000  Hf
  Hf49     1.0000 0.45733  0.93703  0.69338  Biso   1.000  Hf
  Hf50     1.0000 0.97961  0.39981  0.20337  Biso   1.000  Hf
  Hf51     1.0000 0.96155  0.43704  0.69635  Biso   1.000  Hf
  Hf52     1.0000 0.96908  0.93530  0.17829  Biso   1.000  Hf
  Hf53     1.0000 0.96072  0.93560  0.69698  Biso   1.000  Hf
  Hf54     1.0000 0.46165  0.31883  0.44343  Biso   1.000  Hf
  Hf55     1.0000 0.46090  0.32040  0.94465  Biso   1.000  Hf
  Hf56     1.0000 0.45847  0.81953  0.44069  Biso   1.000  Hf
  Hf57     1.0000 0.46230  0.82089  0.94538  Biso   1.000  Hf
  Hf58     1.0000 0.93051  0.31461  0.45236  Biso   1.000  Hf
  Hf59     1.0000 0.95809  0.32242  0.94406  Biso   1.000  Hf
  Hf60     1.0000 0.96679  0.80008  0.45741  Biso   1.000  Hf
  Hf61     1.0000 0.96309  0.82111  0.94151  Biso   1.000  Hf
  Hf62     1.0000 0.25575  0.11505  0.23827  Biso   1.000  Hf
  Hf63     1.0000 0.26523  0.12152  0.75243  Biso   1.000  Hf
  Hf64     1.0000 0.26826  0.61871  0.24790  Biso   1.000  Hf
  Hf65     1.0000 0.26717  0.61870  0.74866  Biso   1.000  Hf
  Hf66     1.0000 0.76775  0.13681  0.23658  Biso   1.000  Hf
  Hf67     1.0000 0.76469  0.11724  0.74998  Biso   1.000  Hf
  Hf68     1.0000 0.76878  0.62070  0.24941  Biso   1.000  Hf
  Hf69     1.0000 0.76421  0.62107  0.75013  Biso   1.000  Hf
  Hf70     1.0000 0.29101  0.12703  0.50698  Biso   1.000  Hf
  Hf71     1.0000 0.26850  0.13468  0.99495  Biso   1.000  Hf
  Hf72     1.0000 0.26424  0.63754  0.49879  Biso   1.000  Hf
  Hf73     1.0000 0.26490  0.63456  0.99928  Biso   1.000  Hf
  Hf74     1.0000 0.74908  0.14719  0.51067  Biso   1.000  Hf
  Hf75     1.0000 0.76229  0.14036  0.99269  Biso   1.000  Hf
  Hf76     1.0000 0.76922  0.63137  0.50106  Biso   1.000  Hf
  Hf77     1.0000 0.76593  0.64128  0.99799  Biso   1.000  Hf
  Hf78     1.0000 0.24565  0.39800  0.50809  Biso   1.000  Hf
  Hf79     1.0000 0.22425  0.38502  0.99523  Biso   1.000  Hf
  Hf80     1.0000 0.22795  0.88250  0.49789  Biso   1.000  Hf
  Hf81     1.0000 0.23012  0.88094  0.99259  Biso   1.000  Hf
  Hf82     1.0000 0.71357  0.39143  0.50060  Biso   1.000  Hf
  Hf83     1.0000 0.72324  0.39275  0.99809  Biso   1.000  Hf
  Hf84     1.0000 0.71340  0.87100  0.51023  Biso   1.000  Hf
  Hf85     1.0000 0.72795  0.89135  0.99767  Biso   1.000  Hf
  Hf86     1.0000 0.24399  0.37878  0.23791  Biso   1.000  Hf
  Hf87     1.0000 0.22636  0.37002  0.74870  Biso   1.000  Hf
  Hf88     1.0000 0.22716  0.86148  0.24638  Biso   1.000  Hf
  Hf89     1.0000 0.22743  0.86589  0.74805  Biso   1.000  Hf
  Hf90     1.0000 0.72548  0.37920  0.24812  Biso   1.000  Hf
  Hf91     1.0000 0.72618  0.37154  0.75236  Biso   1.000  Hf
  Hf92     1.0000 0.71856  0.86503  0.24088  Biso   1.000  Hf
  Hf93     1.0000 0.72641  0.87178  0.75256  Biso   1.000  Hf
