data_image0
_cell_length_a       10.1805
_cell_length_b       10.3791
_cell_length_c       10.4206
_cell_angle_alpha    90
_cell_angle_beta     80
_cell_angle_gamma    90

_symmetry_space_group_name_H-M    "P 1"
_symmetry_int_tables_number       1

loop_
  _symmetry_equiv_pos_as_xyz
  'x, y, z'

loop_
  _atom_site_label
  _atom_site_occupancy
  _atom_site_fract_x
  _atom_site_fract_y
  _atom_site_fract_z
  _atom_site_thermal_displace_type
  _atom_site_B_iso_or_equiv
  _atom_site_type_symbol
  Hf1      1.0000 0.11489  0.00348  0.13335  Biso   1.000  Hf
  Hf2      1.0000 0.13166  0.02154  0.64698  Biso   1.000  Hf
  Hf3      1.0000 0.14077  0.52407  0.14543  Biso   1.000  Hf
  Hf4      1.0000 0.13317  0.52158  0.64817  Biso   1.000  Hf
  Hf5      1.0000 0.64600  0.01907  0.14521  Biso   1.000  Hf
  Hf6      1.0000 0.62904  0.02097  0.64832  Biso   1.000  Hf
  Hf7      1.0000 0.64037  0.52274  0.14555  Biso   1.000  Hf
  Hf8      1.0000 0.63022  0.52140  0.64934  Biso   1.000  Hf
  La1      1.0000 0.12653  0.23792  0.39092  Biso   1.000  La
  Hf9      1.0000 0.12888  0.22950  0.89742  Biso   1.000  Hf
  Hf10     1.0000 0.13505  0.73216  0.39701  Biso   1.000  Hf
  Hf11     1.0000 0.13126  0.72587  0.89715  Biso   1.000  Hf
  Hf12     1.0000 0.63523  0.23194  0.39657  Biso   1.000  Hf
  Hf13     1.0000 0.63455  0.22744  0.89639  Biso   1.000  Hf
  Hf14     1.0000 0.64264  0.72783  0.39950  Biso   1.000  Hf
  Hf15     1.0000 0.62983  0.72929  0.89556  Biso   1.000  Hf
  La2      1.0000 0.36508  0.26014  0.11297  Biso   1.000  La
  Hf16     1.0000 0.35670  0.27171  0.60482  Biso   1.000  Hf
  Hf17     1.0000 0.36585  0.77490  0.10379  Biso   1.000  Hf
  Hf18     1.0000 0.35548  0.76780  0.60942  Biso   1.000  Hf
  Hf19     1.0000 0.86174  0.27238  0.10484  Biso   1.000  Hf
  Hf20     1.0000 0.84872  0.27173  0.61043  Biso   1.000  Hf
  Hf21     1.0000 0.85805  0.76360  0.09896  Biso   1.000  Hf
  Hf22     1.0000 0.85767  0.77121  0.60688  Biso   1.000  Hf
  Hf23     1.0000 0.36417  0.48812  0.35684  Biso   1.000  Hf
  Hf24     1.0000 0.35255  0.47568  0.85797  Biso   1.000  Hf
  Hf25     1.0000 0.37165  0.96721  0.36270  Biso   1.000  Hf
  Hf26     1.0000 0.35439  0.97737  0.85338  Biso   1.000  Hf
  Hf27     1.0000 0.85644  0.48336  0.35414  Biso   1.000  Hf
  Hf28     1.0000 0.85485  0.47806  0.85468  Biso   1.000  Hf
  Hf29     1.0000 0.85775  0.97868  0.35580  Biso   1.000  Hf
  Hf30     1.0000 0.85867  0.97677  0.85499  Biso   1.000  Hf
  Hf31     1.0000 0.04071  0.17723  0.08894  Biso   1.000  Hf
  Hf32     1.0000 0.02184  0.16871  0.59589  Biso   1.000  Hf
  Hf33     1.0000 0.03705  0.67470  0.08251  Biso   1.000  Hf
  Hf34     1.0000 0.03269  0.67119  0.58198  Biso   1.000  Hf
  Hf35     1.0000 0.56574  0.17466  0.08066  Biso   1.000  Hf
  Hf36     1.0000 0.53196  0.17183  0.58168  Biso   1.000  Hf
  Hf37     1.0000 0.54338  0.68067  0.08440  Biso   1.000  Hf
  Hf38     1.0000 0.53305  0.67216  0.58576  Biso   1.000  Hf
  Hf39     1.0000 0.03807  0.05723  0.31815  Biso   1.000  Hf
  Hf40     1.0000 0.03181  0.07213  0.83833  Biso   1.000  Hf
  Hf41     1.0000 0.03314  0.58140  0.33333  Biso   1.000  Hf
  Hf42     1.0000 0.02997  0.57539  0.83513  Biso   1.000  Hf
  Hf43     1.0000 0.53200  0.08135  0.33020  Biso   1.000  Hf
  Hf44     1.0000 0.52471  0.07962  0.83491  Biso   1.000  Hf
  Hf45     1.0000 0.54169  0.58155  0.33657  Biso   1.000  Hf
  Hf46     1.0000 0.52792  0.57932  0.83577  Biso   1.000  Hf
  Hf47     1.0000 0.46672  0.43994  0.16938  Biso   1.000  Hf
  Hf48     1.0000 0.45589  0.42127  0.67022  Biso   1.000  Hf
  Hf49     1.0000 0.46316  0.93265  0.16744  Biso   1.000  Hf
  Hf50     1.0000 0.45817  0.92172  0.66712  Biso   1.000  Hf
  Hf51     1.0000 0.96478  0.42175  0.17006  Biso   1.000  Hf
  Hf52     1.0000 0.95790  0.42058  0.66854  Biso   1.000  Hf
  Hf53     1.0000 0.94548  0.92514  0.15365  Biso   1.000  Hf
  Hf54     1.0000 0.96102  0.91980  0.66824  Biso   1.000  Hf
  Hf55     1.0000 0.45727  0.32638  0.41225  Biso   1.000  Hf
  Hf56     1.0000 0.46124  0.32951  0.91472  Biso   1.000  Hf
  Hf57     1.0000 0.46488  0.82433  0.42238  Biso   1.000  Hf
  Hf58     1.0000 0.45578  0.83020  0.91846  Biso   1.000  Hf
  Hf59     1.0000 0.93306  0.32943  0.42633  Biso   1.000  Hf
  Hf60     1.0000 0.95332  0.32576  0.91885  Biso   1.000  Hf
  Hf61     1.0000 0.95812  0.82705  0.41636  Biso   1.000  Hf
  Hf62     1.0000 0.95471  0.82271  0.91526  Biso   1.000  Hf
  Hf63     1.0000 0.26819  0.12973  0.74085  Biso   1.000  Hf
  Hf64     1.0000 0.27455  0.64426  0.24357  Biso   1.000  Hf
  Hf65     1.0000 0.26960  0.62728  0.74383  Biso   1.000  Hf
  Hf66     1.0000 0.77491  0.13043  0.24357  Biso   1.000  Hf
  Hf67     1.0000 0.76522  0.12699  0.74370  Biso   1.000  Hf
  Hf68     1.0000 0.77708  0.63062  0.24106  Biso   1.000  Hf
  Hf69     1.0000 0.76988  0.62908  0.74217  Biso   1.000  Hf
  Hf70     1.0000 0.27858  0.11220  0.48909  Biso   1.000  Hf
  Hf71     1.0000 0.25308  0.10563  0.99310  Biso   1.000  Hf
  Hf72     1.0000 0.27287  0.62668  0.49267  Biso   1.000  Hf
  Hf73     1.0000 0.26930  0.62106  0.99464  Biso   1.000  Hf
  Hf74     1.0000 0.77020  0.11876  0.49265  Biso   1.000  Hf
  Hf75     1.0000 0.77946  0.11802  0.99072  Biso   1.000  Hf
  Hf76     1.0000 0.77344  0.62108  0.49373  Biso   1.000  Hf
  Hf77     1.0000 0.76649  0.62067  0.98999  Biso   1.000  Hf
  Hf78     1.0000 0.21856  0.38346  0.00343  Biso   1.000  Hf
  Hf79     1.0000 0.23059  0.39000  0.51603  Biso   1.000  Hf
  Hf80     1.0000 0.22517  0.86924  0.00713  Biso   1.000  Hf
  Hf81     1.0000 0.22192  0.87566  0.51133  Biso   1.000  Hf
  Hf82     1.0000 0.72939  0.38120  0.00797  Biso   1.000  Hf
  Hf83     1.0000 0.70589  0.38121  0.51369  Biso   1.000  Hf
  Hf84     1.0000 0.72698  0.87872  0.00674  Biso   1.000  Hf
  Hf85     1.0000 0.72128  0.87956  0.51205  Biso   1.000  Hf
  Hf86     1.0000 0.22733  0.39897  0.26036  Biso   1.000  Hf
  Hf87     1.0000 0.21706  0.36859  0.76065  Biso   1.000  Hf
  Hf88     1.0000 0.22812  0.88647  0.25689  Biso   1.000  Hf
  Hf89     1.0000 0.21897  0.86818  0.76046  Biso   1.000  Hf
  Hf90     1.0000 0.72296  0.37251  0.25848  Biso   1.000  Hf
  Hf91     1.0000 0.71794  0.37117  0.76148  Biso   1.000  Hf
  Hf92     1.0000 0.72263  0.86907  0.26244  Biso   1.000  Hf
  Hf93     1.0000 0.71893  0.87032  0.76008  Biso   1.000  Hf
