data_image0
_cell_length_a       10.1187
_cell_length_b       10.3512
_cell_length_c       10.4015
_cell_angle_alpha    90
_cell_angle_beta     90
_cell_angle_gamma    90

_symmetry_space_group_name_H-M    "P 1"
_symmetry_int_tables_number       1

loop_
  _symmetry_equiv_pos_as_xyz
  'x, y, z'

loop_
  _atom_site_label
  _atom_site_occupancy
  _atom_site_fract_x
  _atom_site_fract_y
  _atom_site_fract_z
  _atom_site_thermal_displace_type
  _atom_site_B_iso_or_equiv
  _atom_site_type_symbol
  La1      1.0000 0.11510  0.99692  0.14487  Biso   1.000  La
  Hf1      1.0000 0.13018  0.01506  0.67275  Biso   1.000  Hf
  Hf2      1.0000 0.13664  0.52384  0.16745  Biso   1.000  Hf
  Hf3      1.0000 0.13009  0.51266  0.66727  Biso   1.000  Hf
  La2      1.0000 0.12577  0.22837  0.40292  Biso   1.000  La
  Hf4      1.0000 0.12953  0.22592  0.92035  Biso   1.000  Hf
  Hf5      1.0000 0.13280  0.72643  0.41995  Biso   1.000  Hf
  Hf6      1.0000 0.13072  0.71952  0.91852  Biso   1.000  Hf
  Hf7      1.0000 0.37340  0.28387  0.15479  Biso   1.000  Hf
  Hf8      1.0000 0.35385  0.26227  0.66748  Biso   1.000  Hf
  Hf9      1.0000 0.36751  0.76745  0.17189  Biso   1.000  Hf
  Hf10     1.0000 0.35141  0.75993  0.67462  Biso   1.000  Hf
  Hf11     1.0000 0.35714  0.47792  0.41973  Biso   1.000  Hf
  Hf12     1.0000 0.35153  0.47309  0.91366  Biso   1.000  Hf
  Hf13     1.0000 0.36769  0.95896  0.43712  Biso   1.000  Hf
  Hf14     1.0000 0.35849  0.97144  0.92107  Biso   1.000  Hf
  Hf15     1.0000 0.64346  0.01833  0.08266  Biso   1.000  Hf
  Hf16     1.0000 0.63565  0.01345  0.58439  Biso   1.000  Hf
  Hf17     1.0000 0.64406  0.52209  0.07566  Biso   1.000  Hf
  Hf18     1.0000 0.63100  0.51167  0.57916  Biso   1.000  Hf
  Hf19     1.0000 0.63216  0.22595  0.33292  Biso   1.000  Hf
  Hf20     1.0000 0.62924  0.21998  0.83105  Biso   1.000  Hf
  Hf21     1.0000 0.63740  0.72222  0.33167  Biso   1.000  Hf
  Hf22     1.0000 0.62957  0.72039  0.82598  Biso   1.000  Hf
  Hf23     1.0000 0.86064  0.27287  0.08012  Biso   1.000  Hf
  Hf24     1.0000 0.85129  0.26312  0.58407  Biso   1.000  Hf
  Hf25     1.0000 0.85537  0.76617  0.07853  Biso   1.000  Hf
  Hf26     1.0000 0.85690  0.76322  0.57996  Biso   1.000  Hf
  Hf27     1.0000 0.85543  0.47843  0.32961  Biso   1.000  Hf
  Hf28     1.0000 0.85424  0.47000  0.82736  Biso   1.000  Hf
  Hf29     1.0000 0.84638  0.97438  0.33238  Biso   1.000  Hf
  Hf30     1.0000 0.85493  0.96990  0.83380  Biso   1.000  Hf
  Hf31     1.0000 0.04057  0.19829  0.09492  Biso   1.000  Hf
  Hf32     1.0000 0.02217  0.16428  0.60363  Biso   1.000  Hf
  Hf33     1.0000 0.04104  0.68917  0.09778  Biso   1.000  Hf
  Hf34     1.0000 0.03089  0.66591  0.58805  Biso   1.000  Hf
  Hf35     1.0000 0.02223  0.04993  0.34270  Biso   1.000  Hf
  Hf36     1.0000 0.03170  0.06376  0.85223  Biso   1.000  Hf
  Hf37     1.0000 0.03602  0.56850  0.34193  Biso   1.000  Hf
  Hf38     1.0000 0.02819  0.56787  0.84019  Biso   1.000  Hf
  Hf39     1.0000 0.47205  0.42093  0.07671  Biso   1.000  Hf
  Hf40     1.0000 0.46037  0.40916  0.58466  Biso   1.000  Hf
  Hf41     1.0000 0.47035  0.92068  0.08971  Biso   1.000  Hf
  Hf42     1.0000 0.46620  0.90228  0.59096  Biso   1.000  Hf
  Hf43     1.0000 0.45465  0.31970  0.33567  Biso   1.000  Hf
  Hf44     1.0000 0.45646  0.32257  0.83434  Biso   1.000  Hf
  Hf45     1.0000 0.46710  0.81963  0.34147  Biso   1.000  Hf
  Hf46     1.0000 0.45923  0.82448  0.83480  Biso   1.000  Hf
  Hf47     1.0000 0.26717  0.11727  0.79346  Biso   1.000  Hf
  Hf48     1.0000 0.27038  0.62788  0.29365  Biso   1.000  Hf
  Hf49     1.0000 0.26682  0.61566  0.79206  Biso   1.000  Hf
  Hf50     1.0000 0.28601  0.13483  0.04438  Biso   1.000  Hf
  Hf51     1.0000 0.27561  0.11215  0.54160  Biso   1.000  Hf
  Hf52     1.0000 0.27555  0.62106  0.04324  Biso   1.000  Hf
  Hf53     1.0000 0.26984  0.62086  0.54252  Biso   1.000  Hf
  Hf54     1.0000 0.23760  0.38351  0.27474  Biso   1.000  Hf
  Hf55     1.0000 0.21579  0.36614  0.78917  Biso   1.000  Hf
  Hf56     1.0000 0.23519  0.87603  0.30109  Biso   1.000  Hf
  Hf57     1.0000 0.21573  0.86540  0.79385  Biso   1.000  Hf
  Hf58     1.0000 0.22705  0.38278  0.03438  Biso   1.000  Hf
  Hf59     1.0000 0.22302  0.37769  0.54448  Biso   1.000  Hf
  Hf60     1.0000 0.24928  0.85939  0.03134  Biso   1.000  Hf
  Hf61     1.0000 0.21826  0.86621  0.54979  Biso   1.000  Hf
  Hf62     1.0000 0.53328  0.16703  0.16346  Biso   1.000  Hf
  Hf63     1.0000 0.52693  0.15825  0.66538  Biso   1.000  Hf
  Hf64     1.0000 0.53384  0.66102  0.16475  Biso   1.000  Hf
  Hf65     1.0000 0.52471  0.65784  0.66459  Biso   1.000  Hf
  Hf66     1.0000 0.52609  0.07448  0.41559  Biso   1.000  Hf
  Hf67     1.0000 0.53009  0.07149  0.91512  Biso   1.000  Hf
  Hf68     1.0000 0.53007  0.57307  0.41307  Biso   1.000  Hf
  Hf69     1.0000 0.52533  0.57491  0.91279  Biso   1.000  Hf
  Hf70     1.0000 0.95850  0.43099  0.15775  Biso   1.000  Hf
  Hf71     1.0000 0.95535  0.41682  0.65868  Biso   1.000  Hf
  Hf72     1.0000 0.91123  0.93619  0.14514  Biso   1.000  Hf
  Hf73     1.0000 0.95791  0.91240  0.66545  Biso   1.000  Hf
  Hf74     1.0000 0.93479  0.32364  0.41370  Biso   1.000  Hf
  Hf75     1.0000 0.95218  0.31814  0.90621  Biso   1.000  Hf
  Hf76     1.0000 0.95384  0.81576  0.40525  Biso   1.000  Hf
  Hf77     1.0000 0.95811  0.81979  0.91572  Biso   1.000  Hf
  Hf78     1.0000 0.76873  0.11484  0.95939  Biso   1.000  Hf
  Hf79     1.0000 0.76466  0.11715  0.46166  Biso   1.000  Hf
  Hf80     1.0000 0.76641  0.61335  0.95292  Biso   1.000  Hf
  Hf81     1.0000 0.77089  0.61617  0.45675  Biso   1.000  Hf
  Hf82     1.0000 0.77011  0.12927  0.21256  Biso   1.000  Hf
  Hf83     1.0000 0.76720  0.11634  0.71125  Biso   1.000  Hf
  Hf84     1.0000 0.77516  0.62527  0.20468  Biso   1.000  Hf
  Hf85     1.0000 0.76879  0.61861  0.70453  Biso   1.000  Hf
  Hf86     1.0000 0.71495  0.36560  0.95481  Biso   1.000  Hf
  Hf87     1.0000 0.70714  0.36816  0.45782  Biso   1.000  Hf
  Hf88     1.0000 0.71370  0.86263  0.95458  Biso   1.000  Hf
  Hf89     1.0000 0.71820  0.86645  0.46127  Biso   1.000  Hf
  Hf90     1.0000 0.71954  0.37620  0.20670  Biso   1.000  Hf
  Hf91     1.0000 0.71632  0.36685  0.70731  Biso   1.000  Hf
  Hf92     1.0000 0.70381  0.86868  0.21183  Biso   1.000  Hf
  Hf93     1.0000 0.71892  0.86766  0.70760  Biso   1.000  Hf
