data_image0
_cell_length_a       10.063
_cell_length_b       10.4026
_cell_length_c       10.1006
_cell_angle_alpha    90
_cell_angle_beta     90
_cell_angle_gamma    90

_symmetry_space_group_name_H-M    "P 1"
_symmetry_int_tables_number       1

loop_
  _symmetry_equiv_pos_as_xyz
  'x, y, z'

loop_
  _atom_site_label
  _atom_site_occupancy
  _atom_site_fract_x
  _atom_site_fract_y
  _atom_site_fract_z
  _atom_site_thermal_displace_type
  _atom_site_B_iso_or_equiv
  _atom_site_type_symbol
  La1      1.0000 0.12437  0.00617  0.12016  Biso   1.000  La
  Hf1      1.0000 0.12955  0.00905  0.62356  Biso   1.000  Hf
  Hf2      1.0000 0.13294  0.51456  0.12325  Biso   1.000  Hf
  Hf3      1.0000 0.13605  0.51247  0.62604  Biso   1.000  Hf
  Hf4      1.0000 0.63317  0.01329  0.12534  Biso   1.000  Hf
  Hf5      1.0000 0.63870  0.01165  0.62922  Biso   1.000  Hf
  Hf6      1.0000 0.63247  0.51602  0.12431  Biso   1.000  Hf
  Hf7      1.0000 0.63752  0.51417  0.62666  Biso   1.000  Hf
  Hf8      1.0000 0.13115  0.23375  0.37367  Biso   1.000  Hf
  Hf9      1.0000 0.13628  0.23189  0.86937  Biso   1.000  Hf
  Hf10     1.0000 0.13364  0.72977  0.37662  Biso   1.000  Hf
  Hf11     1.0000 0.13821  0.72799  0.87458  Biso   1.000  Hf
  Hf12     1.0000 0.63532  0.23062  0.37099  Biso   1.000  Hf
  Hf13     1.0000 0.64057  0.22806  0.88170  Biso   1.000  Hf
  Hf14     1.0000 0.63100  0.72975  0.37934  Biso   1.000  Hf
  Hf15     1.0000 0.63725  0.72824  0.87594  Biso   1.000  Hf
  Hf16     1.0000 0.36523  0.26497  0.12587  Biso   1.000  Hf
  La2      1.0000 0.37661  0.25288  0.61793  Biso   1.000  La
  Hf17     1.0000 0.36970  0.76233  0.12389  Biso   1.000  Hf
  Hf18     1.0000 0.36593  0.76304  0.62386  Biso   1.000  Hf
  Hf19     1.0000 0.86360  0.26897  0.12588  Biso   1.000  Hf
  Hf20     1.0000 0.86669  0.26311  0.62441  Biso   1.000  Hf
  Hf21     1.0000 0.86099  0.76255  0.12911  Biso   1.000  Hf
  Hf22     1.0000 0.86797  0.76037  0.62564  Biso   1.000  Hf
  Hf23     1.0000 0.36353  0.48419  0.36915  Biso   1.000  Hf
  Hf24     1.0000 0.36625  0.47899  0.87721  Biso   1.000  Hf
  Hf25     1.0000 0.36319  0.98154  0.37417  Biso   1.000  Hf
  Hf26     1.0000 0.37005  0.97931  0.87339  Biso   1.000  Hf
  Hf27     1.0000 0.86403  0.48199  0.37660  Biso   1.000  Hf
  Hf28     1.0000 0.86835  0.47850  0.87469  Biso   1.000  Hf
  Hf29     1.0000 0.85791  0.97949  0.38035  Biso   1.000  Hf
  Hf30     1.0000 0.86582  0.97685  0.87522  Biso   1.000  Hf
  Hf31     1.0000 0.02615  0.19485  0.20326  Biso   1.000  Hf
  Hf32     1.0000 0.04017  0.18587  0.68288  Biso   1.000  Hf
  Hf33     1.0000 0.03412  0.68453  0.19598  Biso   1.000  Hf
  Hf34     1.0000 0.03550  0.67856  0.69722  Biso   1.000  Hf
  Hf35     1.0000 0.53974  0.18352  0.18852  Biso   1.000  Hf
  Hf36     1.0000 0.55779  0.17230  0.70953  Biso   1.000  Hf
  Hf37     1.0000 0.53343  0.68001  0.20052  Biso   1.000  Hf
  Hf38     1.0000 0.53815  0.68403  0.69540  Biso   1.000  Hf
  Hf39     1.0000 0.02452  0.06527  0.44280  Biso   1.000  Hf
  Hf40     1.0000 0.02899  0.07257  0.92110  Biso   1.000  Hf
  Hf41     1.0000 0.03145  0.56587  0.44656  Biso   1.000  Hf
  Hf42     1.0000 0.03545  0.56414  0.94463  Biso   1.000  Hf
  Hf43     1.0000 0.52540  0.07301  0.45675  Biso   1.000  Hf
  Hf44     1.0000 0.53974  0.05978  0.94615  Biso   1.000  Hf
  Hf45     1.0000 0.53145  0.56564  0.44953  Biso   1.000  Hf
  Hf46     1.0000 0.53481  0.56578  0.94851  Biso   1.000  Hf
  Hf47     1.0000 0.46052  0.43733  0.18431  Biso   1.000  Hf
  Hf48     1.0000 0.47435  0.44191  0.70530  Biso   1.000  Hf
  Hf49     1.0000 0.46315  0.93438  0.19397  Biso   1.000  Hf
  Hf50     1.0000 0.46581  0.93099  0.69510  Biso   1.000  Hf
  Hf51     1.0000 0.96155  0.43823  0.19561  Biso   1.000  Hf
  Hf52     1.0000 0.96401  0.43142  0.69366  Biso   1.000  Hf
  Hf53     1.0000 0.93967  0.92548  0.20700  Biso   1.000  Hf
  Hf54     1.0000 0.96263  0.92608  0.69550  Biso   1.000  Hf
  Hf55     1.0000 0.46720  0.32182  0.41402  Biso   1.000  Hf
  Hf56     1.0000 0.46952  0.31277  0.94227  Biso   1.000  Hf
  Hf57     1.0000 0.46646  0.81813  0.44772  Biso   1.000  Hf
  Hf58     1.0000 0.47564  0.81401  0.94857  Biso   1.000  Hf
  Hf59     1.0000 0.96055  0.31664  0.44422  Biso   1.000  Hf
  Hf60     1.0000 0.96782  0.31549  0.94811  Biso   1.000  Hf
  Hf61     1.0000 0.96556  0.81393  0.44972  Biso   1.000  Hf
  Hf62     1.0000 0.97636  0.81917  0.95701  Biso   1.000  Hf
  Hf63     1.0000 0.28008  0.12637  0.25262  Biso   1.000  Hf
  Hf64     1.0000 0.25814  0.10000  0.75223  Biso   1.000  Hf
  Hf65     1.0000 0.26620  0.61320  0.24592  Biso   1.000  Hf
  Hf66     1.0000 0.27379  0.61508  0.74833  Biso   1.000  Hf
  Hf67     1.0000 0.76599  0.11418  0.25221  Biso   1.000  Hf
  Hf68     1.0000 0.78273  0.11239  0.75062  Biso   1.000  Hf
  Hf69     1.0000 0.76755  0.61570  0.25010  Biso   1.000  Hf
  Hf70     1.0000 0.77217  0.61323  0.74930  Biso   1.000  Hf
  Hf71     1.0000 0.25274  0.11692  0.49018  Biso   1.000  Hf
  Hf72     1.0000 0.27832  0.13378  0.98964  Biso   1.000  Hf
  Hf73     1.0000 0.26897  0.63077  0.49818  Biso   1.000  Hf
  Hf74     1.0000 0.27073  0.62481  0.99886  Biso   1.000  Hf
  Hf75     1.0000 0.76493  0.12922  0.50195  Biso   1.000  Hf
  Hf76     1.0000 0.77358  0.13090  0.00302  Biso   1.000  Hf
  Hf77     1.0000 0.76977  0.62949  0.49912  Biso   1.000  Hf
  Hf78     1.0000 0.77106  0.62634  0.99818  Biso   1.000  Hf
  Hf79     1.0000 0.22400  0.38629  0.48976  Biso   1.000  Hf
  Hf80     1.0000 0.23211  0.37693  0.99965  Biso   1.000  Hf
  Hf81     1.0000 0.22838  0.87702  0.49867  Biso   1.000  Hf
  Hf82     1.0000 0.24627  0.86630  0.98813  Biso   1.000  Hf
  Hf83     1.0000 0.72660  0.37940  0.49953  Biso   1.000  Hf
  Hf84     1.0000 0.73246  0.37987  0.99991  Biso   1.000  Hf
  Hf85     1.0000 0.72834  0.87652  0.50205  Biso   1.000  Hf
  Hf86     1.0000 0.73318  0.87971  0.00098  Biso   1.000  Hf
  Hf87     1.0000 0.22594  0.36774  0.24536  Biso   1.000  Hf
  Hf88     1.0000 0.22345  0.37449  0.75302  Biso   1.000  Hf
  Hf89     1.0000 0.24249  0.85325  0.25542  Biso   1.000  Hf
  Hf90     1.0000 0.23037  0.85923  0.74459  Biso   1.000  Hf
  Hf91     1.0000 0.72845  0.36749  0.24902  Biso   1.000  Hf
  Hf92     1.0000 0.73429  0.36248  0.75148  Biso   1.000  Hf
  Hf93     1.0000 0.71617  0.86298  0.25151  Biso   1.000  Hf
  Hf94     1.0000 0.73153  0.86219  0.75061  Biso   1.000  Hf
