data_image0
_cell_length_a       10.0733
_cell_length_b       10.231
_cell_length_c       10.1256
_cell_angle_alpha    90
_cell_angle_beta     90
_cell_angle_gamma    90

_symmetry_space_group_name_H-M    "P 1"
_symmetry_int_tables_number       1

loop_
  _symmetry_equiv_pos_as_xyz
  'x, y, z'

loop_
  _atom_site_label
  _atom_site_occupancy
  _atom_site_fract_x
  _atom_site_fract_y
  _atom_site_fract_z
  _atom_site_thermal_displace_type
  _atom_site_B_iso_or_equiv
  _atom_site_type_symbol
  La1      1.0000 0.12403  0.00373  0.12884  Biso   1.000  La
  Hf1      1.0000 0.12706  0.99902  0.62919  Biso   1.000  Hf
  Hf2      1.0000 0.12518  0.50378  0.12463  Biso   1.000  Hf
  Hf3      1.0000 0.12609  0.50280  0.62463  Biso   1.000  Hf
  Hf4      1.0000 0.63070  0.98532  0.10917  Biso   1.000  Hf
  Hf5      1.0000 0.62721  0.00347  0.62667  Biso   1.000  Hf
  Hf6      1.0000 0.62634  0.49963  0.12898  Biso   1.000  Hf
  Hf7      1.0000 0.62971  0.50531  0.62751  Biso   1.000  Hf
  La2      1.0000 0.12775  0.24812  0.37302  Biso   1.000  La
  Hf8      1.0000 0.12689  0.25574  0.87266  Biso   1.000  Hf
  Hf9      1.0000 0.12836  0.74806  0.37728  Biso   1.000  Hf
  Hf10     1.0000 0.12773  0.75199  0.87727  Biso   1.000  Hf
  Hf11     1.0000 0.62274  0.26655  0.39269  Biso   1.000  Hf
  Hf12     1.0000 0.62505  0.25139  0.87516  Biso   1.000  Hf
  Hf13     1.0000 0.62712  0.75228  0.37299  Biso   1.000  Hf
  Hf14     1.0000 0.62407  0.74951  0.87435  Biso   1.000  Hf
  Hf15     1.0000 0.37929  0.26165  0.11585  Biso   1.000  Hf
  Hf16     1.0000 0.37438  0.25162  0.62905  Biso   1.000  Hf
  Hf17     1.0000 0.37503  0.74777  0.12704  Biso   1.000  Hf
  Hf18     1.0000 0.37912  0.75010  0.62862  Biso   1.000  Hf
  Hf19     1.0000 0.87857  0.26103  0.11635  Biso   1.000  Hf
  Hf20     1.0000 0.87910  0.24906  0.62665  Biso   1.000  Hf
  Hf21     1.0000 0.87811  0.74931  0.12730  Biso   1.000  Hf
  Hf22     1.0000 0.88055  0.75117  0.62726  Biso   1.000  Hf
  Hf23     1.0000 0.37494  0.99084  0.38547  Biso   1.000  Hf
  Hf24     1.0000 0.37315  0.00581  0.87520  Biso   1.000  Hf
  Hf25     1.0000 0.37533  0.50257  0.37453  Biso   1.000  Hf
  Hf26     1.0000 0.37328  0.50356  0.87469  Biso   1.000  Hf
  Hf27     1.0000 0.87425  0.99014  0.38606  Biso   1.000  Hf
  Hf28     1.0000 0.87785  0.00326  0.87277  Biso   1.000  Hf
  Hf29     1.0000 0.87843  0.50417  0.37478  Biso   1.000  Hf
  Hf30     1.0000 0.87471  0.50468  0.87337  Biso   1.000  Hf
  Hf31     1.0000 0.99848  0.15677  0.99745  Biso   1.000  Hf
  Hf32     1.0000 0.99148  0.12832  0.51679  Biso   1.000  Hf
  Hf33     1.0000 0.00720  0.64341  0.01266  Biso   1.000  Hf
  Hf34     1.0000 0.00237  0.64349  0.51167  Biso   1.000  Hf
  Hf35     1.0000 0.50901  0.14340  0.01119  Biso   1.000  Hf
  Hf36     1.0000 0.49738  0.15128  0.50764  Biso   1.000  Hf
  Hf37     1.0000 0.50614  0.64537  0.01016  Biso   1.000  Hf
  Hf38     1.0000 0.50230  0.65078  0.50731  Biso   1.000  Hf
  Hf39     1.0000 0.94512  0.12066  0.25227  Biso   1.000  Hf
  Hf40     1.0000 0.00534  0.10566  0.75949  Biso   1.000  Hf
  Hf41     1.0000 0.00517  0.61193  0.26279  Biso   1.000  Hf
  Hf42     1.0000 0.00419  0.60746  0.76114  Biso   1.000  Hf
  Hf43     1.0000 0.55352  0.11137  0.26061  Biso   1.000  Hf
  Hf44     1.0000 0.50326  0.10463  0.75727  Biso   1.000  Hf
  Hf45     1.0000 0.50350  0.60881  0.25928  Biso   1.000  Hf
  Hf46     1.0000 0.50322  0.60557  0.75931  Biso   1.000  Hf
  Hf47     1.0000 0.99761  0.37426  0.23080  Biso   1.000  Hf
  Hf48     1.0000 0.00127  0.35693  0.74221  Biso   1.000  Hf
  Hf49     1.0000 0.99372  0.85356  0.25489  Biso   1.000  Hf
  Hf50     1.0000 0.00818  0.85515  0.74050  Biso   1.000  Hf
  Hf51     1.0000 0.50533  0.35741  0.24687  Biso   1.000  Hf
  Hf52     1.0000 0.50015  0.35473  0.74710  Biso   1.000  Hf
  Hf53     1.0000 0.50289  0.85922  0.23719  Biso   1.000  Hf
  Hf54     1.0000 0.50938  0.85421  0.73717  Biso   1.000  Hf
  Hf55     1.0000 0.99450  0.39806  0.99120  Biso   1.000  Hf
  Hf56     1.0000 0.99647  0.39773  0.49924  Biso   1.000  Hf
  Hf57     1.0000 0.99379  0.88600  0.98611  Biso   1.000  Hf
  Hf58     1.0000 0.01272  0.89003  0.49413  Biso   1.000  Hf
  Hf59     1.0000 0.49576  0.40013  0.99686  Biso   1.000  Hf
  Hf60     1.0000 0.50734  0.40461  0.49516  Biso   1.000  Hf
  Hf61     1.0000 0.50437  0.89569  0.98255  Biso   1.000  Hf
  Hf62     1.0000 0.51740  0.89914  0.48932  Biso   1.000  Hf
  Hf63     1.0000 0.30651  0.13122  0.24960  Biso   1.000  Hf
  Hf64     1.0000 0.24698  0.14915  0.74238  Biso   1.000  Hf
  Hf65     1.0000 0.24835  0.63994  0.23909  Biso   1.000  Hf
  Hf66     1.0000 0.24952  0.64730  0.74071  Biso   1.000  Hf
  Hf67     1.0000 0.69783  0.14054  0.24117  Biso   1.000  Hf
  Hf68     1.0000 0.74905  0.15020  0.74465  Biso   1.000  Hf
  Hf69     1.0000 0.75000  0.64303  0.24269  Biso   1.000  Hf
  Hf70     1.0000 0.75050  0.64927  0.74264  Biso   1.000  Hf
  Hf71     1.0000 0.26078  0.12644  0.98508  Biso   1.000  Hf
  Hf72     1.0000 0.25379  0.09802  0.50441  Biso   1.000  Hf
  Hf73     1.0000 0.25164  0.61135  0.99025  Biso   1.000  Hf
  Hf74     1.0000 0.24640  0.60847  0.48926  Biso   1.000  Hf
  Hf75     1.0000 0.75490  0.10351  0.99428  Biso   1.000  Hf
  Hf76     1.0000 0.74285  0.10844  0.49063  Biso   1.000  Hf
  Hf77     1.0000 0.75173  0.60404  0.99471  Biso   1.000  Hf
  Hf78     1.0000 0.74750  0.60644  0.49185  Biso   1.000  Hf
  Hf79     1.0000 0.24087  0.36183  0.00772  Biso   1.000  Hf
  Hf80     1.0000 0.25995  0.36876  0.51578  Biso   1.000  Hf
  Hf81     1.0000 0.25686  0.85412  0.00261  Biso   1.000  Hf
  Hf82     1.0000 0.25949  0.85672  0.51061  Biso   1.000  Hf
  Hf83     1.0000 0.73616  0.35281  0.01250  Biso   1.000  Hf
  Hf84     1.0000 0.74930  0.35906  0.51942  Biso   1.000  Hf
  Hf85     1.0000 0.74601  0.84727  0.00667  Biso   1.000  Hf
  Hf86     1.0000 0.75819  0.85462  0.50495  Biso   1.000  Hf
  Hf87     1.0000 0.25975  0.39829  0.24697  Biso   1.000  Hf
  Hf88     1.0000 0.24585  0.39960  0.76134  Biso   1.000  Hf
  Hf89     1.0000 0.25590  0.87757  0.27101  Biso   1.000  Hf
  Hf90     1.0000 0.25283  0.89782  0.75956  Biso   1.000  Hf
  Hf91     1.0000 0.75061  0.39258  0.26475  Biso   1.000  Hf
  Hf92     1.0000 0.74465  0.40058  0.76467  Biso   1.000  Hf
  Hf93     1.0000 0.74814  0.89450  0.25495  Biso   1.000  Hf
  Hf94     1.0000 0.75393  0.90005  0.75460  Biso   1.000  Hf
