data_image0
_cell_length_a       10.2243
_cell_length_b       10.3401
_cell_length_c       10.4705
_cell_angle_alpha    90
_cell_angle_beta     80
_cell_angle_gamma    90

_symmetry_space_group_name_H-M    "P 1"
_symmetry_int_tables_number       1

loop_
  _symmetry_equiv_pos_as_xyz
  'x, y, z'

loop_
  _atom_site_label
  _atom_site_occupancy
  _atom_site_fract_x
  _atom_site_fract_y
  _atom_site_fract_z
  _atom_site_thermal_displace_type
  _atom_site_B_iso_or_equiv
  _atom_site_type_symbol
  La1      1.0000 0.12945  0.01277  0.14381  Biso   1.000  La
  Hf1      1.0000 0.13691  0.01529  0.64777  Biso   1.000  Hf
  Hf2      1.0000 0.13717  0.52070  0.14371  Biso   1.000  Hf
  Hf3      1.0000 0.13407  0.52234  0.64777  Biso   1.000  Hf
  Hf4      1.0000 0.63928  0.02027  0.14701  Biso   1.000  Hf
  Hf5      1.0000 0.62638  0.01696  0.65009  Biso   1.000  Hf
  Hf6      1.0000 0.63728  0.51777  0.14636  Biso   1.000  Hf
  Hf7      1.0000 0.63369  0.51713  0.64651  Biso   1.000  Hf
  Hf8      1.0000 0.14452  0.22912  0.39346  Biso   1.000  Hf
  Hf9      1.0000 0.12716  0.23092  0.89398  Biso   1.000  Hf
  Hf10     1.0000 0.13664  0.72670  0.39678  Biso   1.000  Hf
  Hf11     1.0000 0.13206  0.72743  0.89744  Biso   1.000  Hf
  Hf12     1.0000 0.63179  0.23018  0.39653  Biso   1.000  Hf
  Hf13     1.0000 0.62787  0.22758  0.90026  Biso   1.000  Hf
  Hf14     1.0000 0.63428  0.72467  0.39889  Biso   1.000  Hf
  Hf15     1.0000 0.63171  0.72668  0.89566  Biso   1.000  Hf
  Hf16     1.0000 0.35864  0.26959  0.10258  Biso   1.000  Hf
  Hf17     1.0000 0.35264  0.26891  0.60490  Biso   1.000  Hf
  Hf18     1.0000 0.36578  0.76643  0.10351  Biso   1.000  Hf
  Hf19     1.0000 0.35547  0.76768  0.60463  Biso   1.000  Hf
  Hf20     1.0000 0.85739  0.27290  0.10237  Biso   1.000  Hf
  La2      1.0000 0.86356  0.25945  0.60931  Biso   1.000  La
  Hf21     1.0000 0.85636  0.76615  0.10416  Biso   1.000  Hf
  Hf22     1.0000 0.85669  0.77018  0.60604  Biso   1.000  Hf
  Hf23     1.0000 0.35785  0.47848  0.35232  Biso   1.000  Hf
  Hf24     1.0000 0.35298  0.47697  0.85460  Biso   1.000  Hf
  Hf25     1.0000 0.36284  0.97598  0.35420  Biso   1.000  Hf
  Hf26     1.0000 0.35238  0.97761  0.85542  Biso   1.000  Hf
  Hf27     1.0000 0.85738  0.47856  0.35283  Biso   1.000  Hf
  Hf28     1.0000 0.85359  0.48158  0.85461  Biso   1.000  Hf
  Hf29     1.0000 0.84798  0.97613  0.36097  Biso   1.000  Hf
  Hf30     1.0000 0.85249  0.97673  0.85851  Biso   1.000  Hf
  Hf31     1.0000 0.03483  0.19229  0.07651  Biso   1.000  Hf
  Hf32     1.0000 0.06947  0.18216  0.58715  Biso   1.000  Hf
  Hf33     1.0000 0.03866  0.67814  0.08551  Biso   1.000  Hf
  Hf34     1.0000 0.03571  0.67740  0.58490  Biso   1.000  Hf
  Hf35     1.0000 0.53362  0.16633  0.07946  Biso   1.000  Hf
  Hf36     1.0000 0.52583  0.16787  0.58332  Biso   1.000  Hf
  Hf37     1.0000 0.53688  0.66469  0.07788  Biso   1.000  Hf
  Hf38     1.0000 0.52850  0.66351  0.58089  Biso   1.000  Hf
  Hf39     1.0000 0.01698  0.08701  0.35516  Biso   1.000  Hf
  Hf40     1.0000 0.02844  0.07506  0.83558  Biso   1.000  Hf
  Hf41     1.0000 0.03224  0.58224  0.32997  Biso   1.000  Hf
  Hf42     1.0000 0.03190  0.57682  0.83903  Biso   1.000  Hf
  Hf43     1.0000 0.53331  0.07998  0.32940  Biso   1.000  Hf
  Hf44     1.0000 0.51879  0.08465  0.83068  Biso   1.000  Hf
  Hf45     1.0000 0.53125  0.58011  0.32937  Biso   1.000  Hf
  Hf46     1.0000 0.52490  0.58284  0.82966  Biso   1.000  Hf
  Hf47     1.0000 0.46474  0.41528  0.17018  Biso   1.000  Hf
  Hf48     1.0000 0.45833  0.41554  0.67155  Biso   1.000  Hf
  Hf49     1.0000 0.46608  0.91729  0.16850  Biso   1.000  Hf
  Hf50     1.0000 0.45691  0.91366  0.67355  Biso   1.000  Hf
  Hf51     1.0000 0.95710  0.42970  0.16168  Biso   1.000  Hf
  Hf52     1.0000 0.95653  0.44339  0.66946  Biso   1.000  Hf
  Hf53     1.0000 0.92924  0.92432  0.17363  Biso   1.000  Hf
  Hf54     1.0000 0.95497  0.92757  0.66716  Biso   1.000  Hf
  Hf55     1.0000 0.45788  0.32928  0.41963  Biso   1.000  Hf
  Hf56     1.0000 0.45600  0.33302  0.92344  Biso   1.000  Hf
  Hf57     1.0000 0.46270  0.82989  0.42424  Biso   1.000  Hf
  Hf58     1.0000 0.46501  0.83439  0.92204  Biso   1.000  Hf
  Hf59     1.0000 0.97448  0.33776  0.40413  Biso   1.000  Hf
  Hf60     1.0000 0.94789  0.32489  0.90826  Biso   1.000  Hf
  Hf61     1.0000 0.96171  0.83084  0.41812  Biso   1.000  Hf
  Hf62     1.0000 0.95638  0.82726  0.92183  Biso   1.000  Hf
  Hf63     1.0000 0.28058  0.13378  0.24765  Biso   1.000  Hf
  Hf64     1.0000 0.26831  0.12629  0.74096  Biso   1.000  Hf
  Hf65     1.0000 0.27439  0.62334  0.23886  Biso   1.000  Hf
  Hf66     1.0000 0.27017  0.62850  0.74217  Biso   1.000  Hf
  Hf67     1.0000 0.77118  0.13184  0.24272  Biso   1.000  Hf
  Hf68     1.0000 0.75305  0.11416  0.75699  Biso   1.000  Hf
  Hf69     1.0000 0.77179  0.62811  0.24184  Biso   1.000  Hf
  Hf70     1.0000 0.76761  0.62907  0.74141  Biso   1.000  Hf
  Hf71     1.0000 0.28319  0.11674  0.48914  Biso   1.000  Hf
  Hf72     1.0000 0.27100  0.12640  0.98304  Biso   1.000  Hf
  Hf73     1.0000 0.27223  0.62125  0.48990  Biso   1.000  Hf
  Hf74     1.0000 0.26635  0.61633  0.99241  Biso   1.000  Hf
  Hf75     1.0000 0.75196  0.10973  0.49088  Biso   1.000  Hf
  Hf76     1.0000 0.76581  0.11915  0.99602  Biso   1.000  Hf
  Hf77     1.0000 0.77415  0.62101  0.49216  Biso   1.000  Hf
  Hf78     1.0000 0.76567  0.61904  0.99229  Biso   1.000  Hf
  Hf79     1.0000 0.22397  0.38002  0.00631  Biso   1.000  Hf
  Hf80     1.0000 0.22210  0.38236  0.50693  Biso   1.000  Hf
  Hf81     1.0000 0.23009  0.86466  0.99975  Biso   1.000  Hf
  Hf82     1.0000 0.22150  0.87780  0.51045  Biso   1.000  Hf
  Hf83     1.0000 0.72269  0.37941  0.01010  Biso   1.000  Hf
  Hf84     1.0000 0.71386  0.38358  0.50150  Biso   1.000  Hf
  Hf85     1.0000 0.72511  0.87749  0.00965  Biso   1.000  Hf
  Hf86     1.0000 0.71844  0.87240  0.51423  Biso   1.000  Hf
  Hf87     1.0000 0.22285  0.37222  0.25506  Biso   1.000  Hf
  Hf88     1.0000 0.21684  0.37103  0.75837  Biso   1.000  Hf
  Hf89     1.0000 0.23539  0.85851  0.26457  Biso   1.000  Hf
  Hf90     1.0000 0.21660  0.86832  0.75905  Biso   1.000  Hf
  Hf91     1.0000 0.72142  0.37103  0.25834  Biso   1.000  Hf
  Hf92     1.0000 0.70830  0.37584  0.76917  Biso   1.000  Hf
  Hf93     1.0000 0.70811  0.86810  0.26567  Biso   1.000  Hf
  Hf94     1.0000 0.71962  0.86647  0.76095  Biso   1.000  Hf
