data_image0
_cell_length_a       10.1973
_cell_length_b       10.3297
_cell_length_c       10.4643
_cell_angle_alpha    90
_cell_angle_beta     80
_cell_angle_gamma    90

_symmetry_space_group_name_H-M    "P 1"
_symmetry_int_tables_number       1

loop_
  _symmetry_equiv_pos_as_xyz
  'x, y, z'

loop_
  _atom_site_label
  _atom_site_occupancy
  _atom_site_fract_x
  _atom_site_fract_y
  _atom_site_fract_z
  _atom_site_thermal_displace_type
  _atom_site_B_iso_or_equiv
  _atom_site_type_symbol
  Hf1      1.0000 0.12816  0.00529  0.13180  Biso   1.000  Hf
  Hf2      1.0000 0.12369  0.02288  0.65065  Biso   1.000  Hf
  Hf3      1.0000 0.13920  0.52177  0.14812  Biso   1.000  Hf
  Hf4      1.0000 0.12632  0.52650  0.65034  Biso   1.000  Hf
  Hf5      1.0000 0.64382  0.02003  0.13887  Biso   1.000  Hf
  Hf6      1.0000 0.62321  0.02310  0.65015  Biso   1.000  Hf
  Hf7      1.0000 0.63717  0.51978  0.14592  Biso   1.000  Hf
  Hf8      1.0000 0.62846  0.52274  0.65005  Biso   1.000  Hf
  Hf9      1.0000 0.12813  0.25252  0.41581  Biso   1.000  Hf
  Hf10     1.0000 0.12369  0.23209  0.89869  Biso   1.000  Hf
  Hf11     1.0000 0.13167  0.73348  0.39654  Biso   1.000  Hf
  Hf12     1.0000 0.12826  0.72909  0.89857  Biso   1.000  Hf
  Hf13     1.0000 0.63324  0.23342  0.39536  Biso   1.000  Hf
  Hf14     1.0000 0.62675  0.23219  0.89756  Biso   1.000  Hf
  Hf15     1.0000 0.62899  0.72363  0.40088  Biso   1.000  Hf
  Hf16     1.0000 0.62622  0.73016  0.89758  Biso   1.000  Hf
  La1      1.0000 0.35624  0.25651  0.11858  Biso   1.000  La
  Hf17     1.0000 0.35212  0.27297  0.61195  Biso   1.000  Hf
  Hf18     1.0000 0.36513  0.77118  0.10335  Biso   1.000  Hf
  Hf19     1.0000 0.35149  0.76992  0.60731  Biso   1.000  Hf
  Hf20     1.0000 0.86248  0.27155  0.10326  Biso   1.000  Hf
  Hf21     1.0000 0.84513  0.27129  0.60697  Biso   1.000  Hf
  Hf22     1.0000 0.86221  0.76661  0.10366  Biso   1.000  Hf
  Hf23     1.0000 0.85195  0.77356  0.60641  Biso   1.000  Hf
  Hf24     1.0000 0.35887  0.48602  0.35731  Biso   1.000  Hf
  Hf25     1.0000 0.34957  0.47846  0.85902  Biso   1.000  Hf
  La2      1.0000 0.35839  0.99145  0.36001  Biso   1.000  La
  Hf26     1.0000 0.35124  0.97768  0.85402  Biso   1.000  Hf
  Hf27     1.0000 0.85496  0.48312  0.35295  Biso   1.000  Hf
  Hf28     1.0000 0.84889  0.48083  0.85589  Biso   1.000  Hf
  Hf29     1.0000 0.83150  0.97241  0.35906  Biso   1.000  Hf
  Hf30     1.0000 0.85182  0.97947  0.85579  Biso   1.000  Hf
  Hf31     1.0000 0.03177  0.16450  0.07750  Biso   1.000  Hf
  Hf32     1.0000 0.00876  0.15393  0.56772  Biso   1.000  Hf
  Hf33     1.0000 0.03691  0.66858  0.07953  Biso   1.000  Hf
  Hf34     1.0000 0.02174  0.66754  0.57796  Biso   1.000  Hf
  Hf35     1.0000 0.56462  0.18103  0.08490  Biso   1.000  Hf
  Hf36     1.0000 0.52696  0.17479  0.58333  Biso   1.000  Hf
  Hf37     1.0000 0.54337  0.67819  0.08554  Biso   1.000  Hf
  Hf38     1.0000 0.52942  0.67356  0.59067  Biso   1.000  Hf
  Hf39     1.0000 0.18228  0.12239  0.27063  Biso   1.000  Hf
  Hf40     1.0000 0.01881  0.08909  0.82612  Biso   1.000  Hf
  Hf41     1.0000 0.02637  0.58890  0.32989  Biso   1.000  Hf
  Hf42     1.0000 0.02055  0.58702  0.83017  Biso   1.000  Hf
  Hf43     1.0000 0.56426  0.07081  0.32908  Biso   1.000  Hf
  Hf44     1.0000 0.52270  0.07875  0.83671  Biso   1.000  Hf
  Hf45     1.0000 0.54074  0.56792  0.34144  Biso   1.000  Hf
  Hf46     1.0000 0.52727  0.57733  0.83759  Biso   1.000  Hf
  Hf47     1.0000 0.45843  0.44043  0.17118  Biso   1.000  Hf
  Hf48     1.0000 0.45244  0.42721  0.66778  Biso   1.000  Hf
  Hf49     1.0000 0.46575  0.93470  0.14553  Biso   1.000  Hf
  Hf50     1.0000 0.45137  0.92626  0.66491  Biso   1.000  Hf
  Hf51     1.0000 0.96361  0.41930  0.17222  Biso   1.000  Hf
  Hf52     1.0000 0.95717  0.41381  0.67098  Biso   1.000  Hf
  Hf53     1.0000 0.95571  0.92174  0.18297  Biso   1.000  Hf
  Hf54     1.0000 0.95581  0.91440  0.67766  Biso   1.000  Hf
  Hf55     1.0000 0.44838  0.31695  0.41135  Biso   1.000  Hf
  Hf56     1.0000 0.45335  0.32859  0.91131  Biso   1.000  Hf
  Hf57     1.0000 0.45361  0.80965  0.42085  Biso   1.000  Hf
  Hf58     1.0000 0.45050  0.82459  0.91424  Biso   1.000  Hf
  Hf59     1.0000 0.94887  0.32854  0.42005  Biso   1.000  Hf
  Hf60     1.0000 0.95098  0.33570  0.92264  Biso   1.000  Hf
  Hf61     1.0000 0.95871  0.84907  0.42516  Biso   1.000  Hf
  Hf62     1.0000 0.95889  0.84109  0.93051  Biso   1.000  Hf
  Hf63     1.0000 0.26402  0.13096  0.74636  Biso   1.000  Hf
  Hf64     1.0000 0.27494  0.63235  0.24517  Biso   1.000  Hf
  Hf65     1.0000 0.26416  0.62977  0.74474  Biso   1.000  Hf
  Hf66     1.0000 0.79032  0.12998  0.24074  Biso   1.000  Hf
  Hf67     1.0000 0.76040  0.13085  0.74228  Biso   1.000  Hf
  Hf68     1.0000 0.77368  0.62762  0.24062  Biso   1.000  Hf
  Hf69     1.0000 0.76578  0.63160  0.74281  Biso   1.000  Hf
  Hf70     1.0000 0.25121  0.13876  0.51145  Biso   1.000  Hf
  Hf71     1.0000 0.24875  0.10921  0.98942  Biso   1.000  Hf
  Hf72     1.0000 0.26459  0.62413  0.49477  Biso   1.000  Hf
  Hf73     1.0000 0.26437  0.62353  0.99562  Biso   1.000  Hf
  Hf74     1.0000 0.76337  0.11931  0.49319  Biso   1.000  Hf
  Hf75     1.0000 0.77061  0.12111  0.98903  Biso   1.000  Hf
  Hf76     1.0000 0.76923  0.62170  0.49323  Biso   1.000  Hf
  Hf77     1.0000 0.76509  0.62448  0.99247  Biso   1.000  Hf
  Hf78     1.0000 0.21699  0.38362  0.00637  Biso   1.000  Hf
  Hf79     1.0000 0.21892  0.38746  0.51693  Biso   1.000  Hf
  Hf80     1.0000 0.22974  0.87154  0.00411  Biso   1.000  Hf
  Hf81     1.0000 0.20703  0.87569  0.52019  Biso   1.000  Hf
  Hf82     1.0000 0.72696  0.38177  0.00715  Biso   1.000  Hf
  Hf83     1.0000 0.71374  0.38077  0.51150  Biso   1.000  Hf
  Hf84     1.0000 0.73139  0.87621  0.00702  Biso   1.000  Hf
  Hf85     1.0000 0.70979  0.87763  0.51254  Biso   1.000  Hf
  Hf86     1.0000 0.21124  0.38531  0.27534  Biso   1.000  Hf
  Hf87     1.0000 0.21309  0.37284  0.76227  Biso   1.000  Hf
  Hf88     1.0000 0.21244  0.86466  0.24861  Biso   1.000  Hf
  Hf89     1.0000 0.21363  0.87189  0.76266  Biso   1.000  Hf
  Hf90     1.0000 0.72128  0.37050  0.25863  Biso   1.000  Hf
  Hf91     1.0000 0.71442  0.37343  0.76108  Biso   1.000  Hf
  Hf92     1.0000 0.71807  0.86312  0.25982  Biso   1.000  Hf
  Hf93     1.0000 0.71310  0.87282  0.76110  Biso   1.000  Hf
