data_image0
_cell_length_a       10.1371
_cell_length_b       10.3018
_cell_length_c       10.5105
_cell_angle_alpha    90
_cell_angle_beta     90
_cell_angle_gamma    90

_symmetry_space_group_name_H-M    "P 1"
_symmetry_int_tables_number       1

loop_
  _symmetry_equiv_pos_as_xyz
  'x, y, z'

loop_
  _atom_site_label
  _atom_site_occupancy
  _atom_site_fract_x
  _atom_site_fract_y
  _atom_site_fract_z
  _atom_site_thermal_displace_type
  _atom_site_B_iso_or_equiv
  _atom_site_type_symbol
  La1      1.0000 0.13358  0.01159  0.16588  Biso   1.000  La
  Hf1      1.0000 0.13857  0.01857  0.67368  Biso   1.000  Hf
  Hf2      1.0000 0.13660  0.52037  0.16874  Biso   1.000  Hf
  Hf3      1.0000 0.13754  0.52123  0.66935  Biso   1.000  Hf
  Hf4      1.0000 0.13935  0.22664  0.42283  Biso   1.000  Hf
  Hf5      1.0000 0.13683  0.23313  0.92074  Biso   1.000  Hf
  Hf6      1.0000 0.13564  0.72866  0.42238  Biso   1.000  Hf
  Hf7      1.0000 0.13815  0.72742  0.92050  Biso   1.000  Hf
  Hf8      1.0000 0.36023  0.27015  0.17022  Biso   1.000  Hf
  Hf9      1.0000 0.35652  0.26558  0.67345  Biso   1.000  Hf
  Hf10     1.0000 0.36343  0.76685  0.17057  Biso   1.000  Hf
  Hf11     1.0000 0.35542  0.77365  0.67366  Biso   1.000  Hf
  Hf12     1.0000 0.35101  0.47871  0.41481  Biso   1.000  Hf
  Hf13     1.0000 0.35990  0.47843  0.91986  Biso   1.000  Hf
  Hf14     1.0000 0.35838  0.97943  0.42313  Biso   1.000  Hf
  Hf15     1.0000 0.35985  0.98073  0.92169  Biso   1.000  Hf
  Hf16     1.0000 0.63962  0.02120  0.08066  Biso   1.000  Hf
  Hf17     1.0000 0.63875  0.02034  0.58128  Biso   1.000  Hf
  Hf18     1.0000 0.63638  0.51857  0.07631  Biso   1.000  Hf
  La2      1.0000 0.63147  0.51158  0.58412  Biso   1.000  La
  Hf19     1.0000 0.63776  0.22863  0.32762  Biso   1.000  Hf
  Hf20     1.0000 0.64025  0.22741  0.82951  Biso   1.000  Hf
  Hf21     1.0000 0.63721  0.72665  0.32717  Biso   1.000  Hf
  Hf22     1.0000 0.63470  0.73313  0.82927  Biso   1.000  Hf
  Hf23     1.0000 0.85750  0.27365  0.07634  Biso   1.000  Hf
  Hf24     1.0000 0.86559  0.26684  0.57943  Biso   1.000  Hf
  Hf25     1.0000 0.85436  0.76559  0.07653  Biso   1.000  Hf
  Hf26     1.0000 0.85811  0.77017  0.57978  Biso   1.000  Hf
  Hf27     1.0000 0.86050  0.47941  0.32687  Biso   1.000  Hf
  Hf28     1.0000 0.86198  0.48071  0.82829  Biso   1.000  Hf
  Hf29     1.0000 0.84883  0.97873  0.33519  Biso   1.000  Hf
  Hf30     1.0000 0.85775  0.97845  0.83014  Biso   1.000  Hf
  Hf31     1.0000 0.02965  0.18318  0.07927  Biso   1.000  Hf
  Hf32     1.0000 0.03512  0.16599  0.58952  Biso   1.000  Hf
  Hf33     1.0000 0.03116  0.66730  0.08355  Biso   1.000  Hf
  Hf34     1.0000 0.03048  0.66617  0.58413  Biso   1.000  Hf
  Hf35     1.0000 0.01949  0.08925  0.34798  Biso   1.000  Hf
  Hf36     1.0000 0.03261  0.08394  0.83683  Biso   1.000  Hf
  Hf37     1.0000 0.03156  0.58483  0.33293  Biso   1.000  Hf
  Hf38     1.0000 0.03397  0.58312  0.83346  Biso   1.000  Hf
  Hf39     1.0000 0.46523  0.41362  0.08059  Biso   1.000  Hf
  Hf40     1.0000 0.43828  0.41007  0.57718  Biso   1.000  Hf
  Hf41     1.0000 0.46456  0.91939  0.08705  Biso   1.000  Hf
  Hf42     1.0000 0.46057  0.91954  0.58557  Biso   1.000  Hf
  Hf43     1.0000 0.46790  0.33801  0.33166  Biso   1.000  Hf
  Hf44     1.0000 0.46965  0.33659  0.82909  Biso   1.000  Hf
  Hf45     1.0000 0.47055  0.83839  0.33220  Biso   1.000  Hf
  Hf46     1.0000 0.46338  0.83869  0.83650  Biso   1.000  Hf
  Hf47     1.0000 0.28194  0.12890  0.30443  Biso   1.000  Hf
  Hf48     1.0000 0.27295  0.12195  0.79523  Biso   1.000  Hf
  Hf49     1.0000 0.27024  0.62183  0.29027  Biso   1.000  Hf
  Hf50     1.0000 0.27467  0.62445  0.79387  Biso   1.000  Hf
  Hf51     1.0000 0.28433  0.13567  0.03634  Biso   1.000  Hf
  Hf52     1.0000 0.27469  0.12456  0.54784  Biso   1.000  Hf
  Hf53     1.0000 0.27319  0.62036  0.04385  Biso   1.000  Hf
  Hf54     1.0000 0.27193  0.62700  0.54252  Biso   1.000  Hf
  Hf55     1.0000 0.22138  0.37222  0.29114  Biso   1.000  Hf
  Hf56     1.0000 0.22450  0.37427  0.79362  Biso   1.000  Hf
  Hf57     1.0000 0.23336  0.86305  0.30332  Biso   1.000  Hf
  Hf58     1.0000 0.21933  0.87435  0.79510  Biso   1.000  Hf
  Hf59     1.0000 0.22241  0.37763  0.04348  Biso   1.000  Hf
  Hf60     1.0000 0.21006  0.37640  0.54224  Biso   1.000  Hf
  Hf61     1.0000 0.23950  0.86053  0.03585  Biso   1.000  Hf
  Hf62     1.0000 0.21927  0.87722  0.54681  Biso   1.000  Hf
  Hf63     1.0000 0.53259  0.16618  0.16584  Biso   1.000  Hf
  Hf64     1.0000 0.53335  0.16730  0.66643  Biso   1.000  Hf
  Hf65     1.0000 0.53295  0.66601  0.16048  Biso   1.000  Hf
  Hf66     1.0000 0.52758  0.68321  0.67072  Biso   1.000  Hf
  Hf67     1.0000 0.53371  0.08477  0.41706  Biso   1.000  Hf
  Hf68     1.0000 0.53611  0.08310  0.91653  Biso   1.000  Hf
  Hf69     1.0000 0.51739  0.58923  0.40200  Biso   1.000  Hf
  Hf70     1.0000 0.53050  0.58392  0.91316  Biso   1.000  Hf
  Hf71     1.0000 0.96271  0.41953  0.16444  Biso   1.000  Hf
  Hf72     1.0000 0.96675  0.41935  0.66296  Biso   1.000  Hf
  Hf73     1.0000 0.93611  0.91006  0.17285  Biso   1.000  Hf
  Hf74     1.0000 0.96314  0.91360  0.66942  Biso   1.000  Hf
  Hf75     1.0000 0.97272  0.33839  0.41780  Biso   1.000  Hf
  Hf76     1.0000 0.96552  0.33869  0.91352  Biso   1.000  Hf
  Hf77     1.0000 0.96576  0.83805  0.41835  Biso   1.000  Hf
  Hf78     1.0000 0.96752  0.83661  0.92093  Biso   1.000  Hf
  Hf79     1.0000 0.77683  0.12444  0.95615  Biso   1.000  Hf
  Hf80     1.0000 0.77239  0.12183  0.45976  Biso   1.000  Hf
  Hf81     1.0000 0.77082  0.62194  0.95478  Biso   1.000  Hf
  Hf82     1.0000 0.77981  0.62891  0.44556  Biso   1.000  Hf
  Hf83     1.0000 0.77405  0.12699  0.20749  Biso   1.000  Hf
  Hf84     1.0000 0.77536  0.12036  0.70614  Biso   1.000  Hf
  Hf85     1.0000 0.77253  0.62456  0.20216  Biso   1.000  Hf
  Hf86     1.0000 0.78223  0.63568  0.71366  Biso   1.000  Hf
  Hf87     1.0000 0.72147  0.37435  0.95490  Biso   1.000  Hf
  Hf88     1.0000 0.73549  0.36302  0.44666  Biso   1.000  Hf
  Hf89     1.0000 0.72237  0.87427  0.95637  Biso   1.000  Hf
  Hf90     1.0000 0.71923  0.87221  0.45885  Biso   1.000  Hf
  Hf91     1.0000 0.72140  0.37721  0.20320  Biso   1.000  Hf
  Hf92     1.0000 0.74167  0.36051  0.71414  Biso   1.000  Hf
  Hf93     1.0000 0.70787  0.87643  0.20776  Biso   1.000  Hf
  Hf94     1.0000 0.72029  0.87762  0.70651  Biso   1.000  Hf
