data_image0
_cell_length_a       10.139
_cell_length_b       10.2857
_cell_length_c       10.5368
_cell_angle_alpha    90
_cell_angle_beta     90
_cell_angle_gamma    90

_symmetry_space_group_name_H-M    "P 1"
_symmetry_int_tables_number       1

loop_
  _symmetry_equiv_pos_as_xyz
  'x, y, z'

loop_
  _atom_site_label
  _atom_site_occupancy
  _atom_site_fract_x
  _atom_site_fract_y
  _atom_site_fract_z
  _atom_site_thermal_displace_type
  _atom_site_B_iso_or_equiv
  _atom_site_type_symbol
  La1      1.0000 0.13340  0.01324  0.16436  Biso   1.000  La
  Hf1      1.0000 0.13970  0.02233  0.67177  Biso   1.000  Hf
  Hf2      1.0000 0.13323  0.51940  0.16797  Biso   1.000  Hf
  Hf3      1.0000 0.13565  0.52203  0.67189  Biso   1.000  Hf
  Hf4      1.0000 0.13851  0.22907  0.42301  Biso   1.000  Hf
  Hf5      1.0000 0.13748  0.23431  0.91842  Biso   1.000  Hf
  Hf6      1.0000 0.13142  0.73225  0.42195  Biso   1.000  Hf
  Hf7      1.0000 0.13813  0.72763  0.92041  Biso   1.000  Hf
  Hf8      1.0000 0.35905  0.26546  0.16873  Biso   1.000  Hf
  Hf9      1.0000 0.35962  0.27217  0.67305  Biso   1.000  Hf
  Hf10     1.0000 0.36252  0.76821  0.17076  Biso   1.000  Hf
  Hf11     1.0000 0.35621  0.77249  0.67231  Biso   1.000  Hf
  La2      1.0000 0.36186  0.48586  0.41368  Biso   1.000  La
  Hf12     1.0000 0.35827  0.47884  0.92248  Biso   1.000  Hf
  Hf13     1.0000 0.35807  0.97986  0.42293  Biso   1.000  Hf
  Hf14     1.0000 0.36040  0.97962  0.91857  Biso   1.000  Hf
  Hf15     1.0000 0.64090  0.02010  0.07678  Biso   1.000  Hf
  Hf16     1.0000 0.63787  0.02117  0.58013  Biso   1.000  Hf
  Hf17     1.0000 0.63506  0.51851  0.07888  Biso   1.000  Hf
  Hf18     1.0000 0.64142  0.52092  0.58191  Biso   1.000  Hf
  Hf19     1.0000 0.63973  0.22680  0.32550  Biso   1.000  Hf
  Hf20     1.0000 0.63779  0.22889  0.82761  Biso   1.000  Hf
  Hf21     1.0000 0.64207  0.73196  0.32812  Biso   1.000  Hf
  Hf22     1.0000 0.63349  0.72863  0.82744  Biso   1.000  Hf
  Hf23     1.0000 0.85735  0.27387  0.07521  Biso   1.000  Hf
  Hf24     1.0000 0.86042  0.27145  0.57838  Biso   1.000  Hf
  Hf25     1.0000 0.85504  0.76635  0.07464  Biso   1.000  Hf
  Hf26     1.0000 0.85807  0.77186  0.57970  Biso   1.000  Hf
  Hf27     1.0000 0.85883  0.47947  0.32946  Biso   1.000  Hf
  Hf28     1.0000 0.85810  0.48031  0.82733  Biso   1.000  Hf
  Hf29     1.0000 0.85172  0.98183  0.33402  Biso   1.000  Hf
  Hf30     1.0000 0.85825  0.97965  0.82830  Biso   1.000  Hf
  Hf31     1.0000 0.02950  0.18386  0.07608  Biso   1.000  Hf
  Hf32     1.0000 0.03056  0.16567  0.58709  Biso   1.000  Hf
  Hf33     1.0000 0.02808  0.66386  0.07827  Biso   1.000  Hf
  Hf34     1.0000 0.02437  0.66307  0.58273  Biso   1.000  Hf
  Hf35     1.0000 0.02054  0.09105  0.34657  Biso   1.000  Hf
  Hf36     1.0000 0.03229  0.08663  0.83416  Biso   1.000  Hf
  Hf37     1.0000 0.02752  0.58553  0.33308  Biso   1.000  Hf
  Hf38     1.0000 0.02760  0.58838  0.83010  Biso   1.000  Hf
  Hf39     1.0000 0.46494  0.41227  0.08346  Biso   1.000  Hf
  Hf40     1.0000 0.47816  0.40806  0.59474  Biso   1.000  Hf
  Hf41     1.0000 0.46843  0.91362  0.07997  Biso   1.000  Hf
  Hf42     1.0000 0.46532  0.91171  0.58239  Biso   1.000  Hf
  Hf43     1.0000 0.47053  0.32002  0.32437  Biso   1.000  Hf
  Hf44     1.0000 0.46591  0.33276  0.83666  Biso   1.000  Hf
  Hf45     1.0000 0.47042  0.83767  0.33038  Biso   1.000  Hf
  Hf46     1.0000 0.46625  0.83739  0.83018  Biso   1.000  Hf
  Hf47     1.0000 0.28224  0.12676  0.30405  Biso   1.000  Hf
  Hf48     1.0000 0.27399  0.12435  0.79250  Biso   1.000  Hf
  Hf49     1.0000 0.25472  0.63537  0.28232  Biso   1.000  Hf
  Hf50     1.0000 0.27280  0.62431  0.79615  Biso   1.000  Hf
  Hf51     1.0000 0.28449  0.13282  0.03269  Biso   1.000  Hf
  Hf52     1.0000 0.27577  0.12671  0.54680  Biso   1.000  Hf
  Hf53     1.0000 0.27177  0.62029  0.04301  Biso   1.000  Hf
  Hf54     1.0000 0.26174  0.63765  0.55170  Biso   1.000  Hf
  Hf55     1.0000 0.20988  0.36311  0.28245  Biso   1.000  Hf
  Hf56     1.0000 0.22405  0.37694  0.79588  Biso   1.000  Hf
  Hf57     1.0000 0.23323  0.86868  0.30399  Biso   1.000  Hf
  Hf58     1.0000 0.22159  0.87474  0.79294  Biso   1.000  Hf
  Hf59     1.0000 0.22241  0.37716  0.04165  Biso   1.000  Hf
  Hf60     1.0000 0.21611  0.37165  0.55458  Biso   1.000  Hf
  Hf61     1.0000 0.23967  0.86144  0.03440  Biso   1.000  Hf
  Hf62     1.0000 0.21967  0.88098  0.54659  Biso   1.000  Hf
  Hf63     1.0000 0.53417  0.15977  0.16249  Biso   1.000  Hf
  Hf64     1.0000 0.53034  0.16112  0.66895  Biso   1.000  Hf
  Hf65     1.0000 0.52662  0.65530  0.17506  Biso   1.000  Hf
  Hf66     1.0000 0.52663  0.66076  0.67166  Biso   1.000  Hf
  Hf67     1.0000 0.53576  0.08199  0.41739  Biso   1.000  Hf
  Hf68     1.0000 0.53589  0.08284  0.91342  Biso   1.000  Hf
  Hf69     1.0000 0.54969  0.59761  0.42889  Biso   1.000  Hf
  Hf70     1.0000 0.52748  0.58852  0.92161  Biso   1.000  Hf
  Hf71     1.0000 0.95844  0.42024  0.16403  Biso   1.000  Hf
  Hf72     1.0000 0.96447  0.41688  0.66604  Biso   1.000  Hf
  Hf73     1.0000 0.94165  0.90239  0.17859  Biso   1.000  Hf
  Hf74     1.0000 0.96497  0.91348  0.67071  Biso   1.000  Hf
  Hf75     1.0000 0.96619  0.33825  0.41905  Biso   1.000  Hf
  Hf76     1.0000 0.96384  0.34009  0.91166  Biso   1.000  Hf
  Hf77     1.0000 0.96466  0.84126  0.42207  Biso   1.000  Hf
  Hf78     1.0000 0.96929  0.84209  0.92300  Biso   1.000  Hf
  Hf79     1.0000 0.77587  0.12489  0.95356  Biso   1.000  Hf
  Hf80     1.0000 0.77241  0.12557  0.45839  Biso   1.000  Hf
  Hf81     1.0000 0.76956  0.62196  0.95299  Biso   1.000  Hf
  Hf82     1.0000 0.78486  0.62503  0.45512  Biso   1.000  Hf
  Hf83     1.0000 0.77753  0.12647  0.20428  Biso   1.000  Hf
  Hf84     1.0000 0.77487  0.12542  0.70523  Biso   1.000  Hf
  Hf85     1.0000 0.77153  0.62669  0.20345  Biso   1.000  Hf
  Hf86     1.0000 0.77132  0.62752  0.70545  Biso   1.000  Hf
  Hf87     1.0000 0.71995  0.37474  0.95395  Biso   1.000  Hf
  Hf88     1.0000 0.72320  0.37454  0.45523  Biso   1.000  Hf
  Hf89     1.0000 0.72323  0.87253  0.95266  Biso   1.000  Hf
  Hf90     1.0000 0.72170  0.87410  0.45690  Biso   1.000  Hf
  Hf91     1.0000 0.72044  0.37642  0.20491  Biso   1.000  Hf
  Hf92     1.0000 0.72653  0.37403  0.70639  Biso   1.000  Hf
  Hf93     1.0000 0.71064  0.87844  0.20407  Biso   1.000  Hf
  Hf94     1.0000 0.72125  0.87594  0.70519  Biso   1.000  Hf
