data_image0
_cell_length_a       10.2095
_cell_length_b       10.3577
_cell_length_c       10.4702
_cell_angle_alpha    90
_cell_angle_beta     80
_cell_angle_gamma    90

_symmetry_space_group_name_H-M    "P 1"
_symmetry_int_tables_number       1

loop_
  _symmetry_equiv_pos_as_xyz
  'x, y, z'

loop_
  _atom_site_label
  _atom_site_occupancy
  _atom_site_fract_x
  _atom_site_fract_y
  _atom_site_fract_z
  _atom_site_thermal_displace_type
  _atom_site_B_iso_or_equiv
  _atom_site_type_symbol
  Hf1      1.0000 0.13994  0.99822  0.15934  Biso   1.000  Hf
  Hf2      1.0000 0.13454  0.01752  0.64572  Biso   1.000  Hf
  Hf3      1.0000 0.13508  0.51741  0.14729  Biso   1.000  Hf
  Hf4      1.0000 0.13232  0.52173  0.64658  Biso   1.000  Hf
  Hf5      1.0000 0.64125  0.01607  0.14614  Biso   1.000  Hf
  Hf6      1.0000 0.63103  0.02118  0.64845  Biso   1.000  Hf
  Hf7      1.0000 0.62780  0.53273  0.14958  Biso   1.000  Hf
  Hf8      1.0000 0.63210  0.52389  0.64424  Biso   1.000  Hf
  Hf9      1.0000 0.13149  0.22943  0.39996  Biso   1.000  Hf
  La1      1.0000 0.11611  0.24492  0.88879  Biso   1.000  La
  Hf10     1.0000 0.12803  0.72392  0.39837  Biso   1.000  Hf
  Hf11     1.0000 0.12803  0.72695  0.89733  Biso   1.000  Hf
  Hf12     1.0000 0.63139  0.22906  0.39943  Biso   1.000  Hf
  Hf13     1.0000 0.63197  0.23153  0.88901  Biso   1.000  Hf
  Hf14     1.0000 0.63394  0.73086  0.39810  Biso   1.000  Hf
  Hf15     1.0000 0.62593  0.73558  0.89494  Biso   1.000  Hf
  La2      1.0000 0.36741  0.25933  0.11061  Biso   1.000  La
  Hf16     1.0000 0.35746  0.27274  0.60402  Biso   1.000  Hf
  Hf17     1.0000 0.35830  0.76791  0.10290  Biso   1.000  Hf
  Hf18     1.0000 0.35495  0.77201  0.60587  Biso   1.000  Hf
  Hf19     1.0000 0.81909  0.28301  0.10713  Biso   1.000  Hf
  Hf20     1.0000 0.85567  0.27278  0.60545  Biso   1.000  Hf
  Hf21     1.0000 0.85965  0.76898  0.10168  Biso   1.000  Hf
  Hf22     1.0000 0.85207  0.77332  0.60191  Biso   1.000  Hf
  Hf23     1.0000 0.35462  0.48149  0.35728  Biso   1.000  Hf
  Hf24     1.0000 0.35739  0.48277  0.85384  Biso   1.000  Hf
  Hf25     1.0000 0.35614  0.97942  0.36001  Biso   1.000  Hf
  Hf26     1.0000 0.34256  0.98032  0.85702  Biso   1.000  Hf
  Hf27     1.0000 0.85511  0.47621  0.35363  Biso   1.000  Hf
  Hf28     1.0000 0.84578  0.48855  0.85497  Biso   1.000  Hf
  Hf29     1.0000 0.85209  0.98375  0.35313  Biso   1.000  Hf
  Hf30     1.0000 0.85153  0.97651  0.85358  Biso   1.000  Hf
  Hf31     1.0000 0.02716  0.16331  0.57910  Biso   1.000  Hf
  Hf32     1.0000 0.03065  0.66302  0.07963  Biso   1.000  Hf
  Hf33     1.0000 0.02317  0.66491  0.57747  Biso   1.000  Hf
  Hf34     1.0000 0.57825  0.18147  0.08002  Biso   1.000  Hf
  Hf35     1.0000 0.53238  0.17163  0.58246  Biso   1.000  Hf
  Hf36     1.0000 0.53650  0.68263  0.08186  Biso   1.000  Hf
  Hf37     1.0000 0.53130  0.67550  0.58393  Biso   1.000  Hf
  Hf38     1.0000 0.01987  0.09899  0.31077  Biso   1.000  Hf
  Hf39     1.0000 0.03006  0.06253  0.82610  Biso   1.000  Hf
  Hf40     1.0000 0.02370  0.58254  0.32808  Biso   1.000  Hf
  Hf41     1.0000 0.02685  0.57911  0.83059  Biso   1.000  Hf
  Hf42     1.0000 0.53276  0.07958  0.33178  Biso   1.000  Hf
  Hf43     1.0000 0.52451  0.08049  0.83762  Biso   1.000  Hf
  Hf44     1.0000 0.52893  0.58596  0.33813  Biso   1.000  Hf
  Hf45     1.0000 0.53040  0.58394  0.83127  Biso   1.000  Hf
  Hf46     1.0000 0.45474  0.44411  0.17396  Biso   1.000  Hf
  Hf47     1.0000 0.46329  0.42473  0.66220  Biso   1.000  Hf
  Hf48     1.0000 0.45379  0.93032  0.16585  Biso   1.000  Hf
  Hf49     1.0000 0.45323  0.92118  0.67261  Biso   1.000  Hf
  Hf50     1.0000 0.95823  0.39925  0.17449  Biso   1.000  Hf
  Hf51     1.0000 0.96390  0.40939  0.68149  Biso   1.000  Hf
  Hf52     1.0000 0.95698  0.92583  0.16282  Biso   1.000  Hf
  Hf53     1.0000 0.95430  0.91530  0.66648  Biso   1.000  Hf
  Hf54     1.0000 0.45624  0.32755  0.41586  Biso   1.000  Hf
  Hf55     1.0000 0.46156  0.32936  0.90079  Biso   1.000  Hf
  Hf56     1.0000 0.45916  0.83075  0.42104  Biso   1.000  Hf
  Hf57     1.0000 0.45003  0.83353  0.91981  Biso   1.000  Hf
  Hf58     1.0000 0.95913  0.33659  0.42843  Biso   1.000  Hf
  Hf59     1.0000 0.92179  0.34226  0.94093  Biso   1.000  Hf
  Hf60     1.0000 0.96011  0.83760  0.41595  Biso   1.000  Hf
  Hf61     1.0000 0.95112  0.82595  0.91995  Biso   1.000  Hf
  Hf62     1.0000 0.25881  0.11304  0.26064  Biso   1.000  Hf
  Hf63     1.0000 0.27724  0.12491  0.73471  Biso   1.000  Hf
  Hf64     1.0000 0.26603  0.62881  0.24254  Biso   1.000  Hf
  Hf65     1.0000 0.26721  0.63223  0.74155  Biso   1.000  Hf
  Hf66     1.0000 0.76948  0.13310  0.24318  Biso   1.000  Hf
  Hf67     1.0000 0.76679  0.12960  0.74120  Biso   1.000  Hf
  Hf68     1.0000 0.77144  0.63117  0.24081  Biso   1.000  Hf
  Hf69     1.0000 0.76799  0.63407  0.73928  Biso   1.000  Hf
  Hf70     1.0000 0.27113  0.12160  0.49437  Biso   1.000  Hf
  Hf71     1.0000 0.24374  0.10186  0.00503  Biso   1.000  Hf
  Hf72     1.0000 0.26709  0.62238  0.49260  Biso   1.000  Hf
  Hf73     1.0000 0.26746  0.62649  0.99225  Biso   1.000  Hf
  Hf74     1.0000 0.77018  0.12137  0.49159  Biso   1.000  Hf
  Hf75     1.0000 0.78833  0.12175  0.98951  Biso   1.000  Hf
  Hf76     1.0000 0.76915  0.62094  0.48906  Biso   1.000  Hf
  Hf77     1.0000 0.76198  0.62930  0.99120  Biso   1.000  Hf
  Hf78     1.0000 0.22741  0.39424  0.00696  Biso   1.000  Hf
  Hf79     1.0000 0.21746  0.37855  0.51160  Biso   1.000  Hf
  Hf80     1.0000 0.21978  0.86728  0.01146  Biso   1.000  Hf
  Hf81     1.0000 0.21715  0.87707  0.51015  Biso   1.000  Hf
  Hf82     1.0000 0.70208  0.39321  0.00934  Biso   1.000  Hf
  Hf83     1.0000 0.71914  0.37919  0.50917  Biso   1.000  Hf
  Hf84     1.0000 0.72214  0.87982  0.00863  Biso   1.000  Hf
  Hf85     1.0000 0.71645  0.88165  0.51002  Biso   1.000  Hf
  Hf86     1.0000 0.20969  0.37557  0.27114  Biso   1.000  Hf
  Hf87     1.0000 0.23200  0.38385  0.74752  Biso   1.000  Hf
  Hf88     1.0000 0.22075  0.86386  0.26170  Biso   1.000  Hf
  Hf89     1.0000 0.21410  0.86963  0.76109  Biso   1.000  Hf
  Hf90     1.0000 0.70696  0.37792  0.26325  Biso   1.000  Hf
  Hf91     1.0000 0.71972  0.37511  0.75696  Biso   1.000  Hf
  Hf92     1.0000 0.72104  0.87257  0.25980  Biso   1.000  Hf
  Hf93     1.0000 0.71213  0.87303  0.75868  Biso   1.000  Hf
