data_image0
_cell_length_a       10.1218
_cell_length_b       10.2659
_cell_length_c       10.5165
_cell_angle_alpha    90
_cell_angle_beta     90
_cell_angle_gamma    90

_symmetry_space_group_name_H-M    "P 1"
_symmetry_int_tables_number       1

loop_
  _symmetry_equiv_pos_as_xyz
  'x, y, z'

loop_
  _atom_site_label
  _atom_site_occupancy
  _atom_site_fract_x
  _atom_site_fract_y
  _atom_site_fract_z
  _atom_site_thermal_displace_type
  _atom_site_B_iso_or_equiv
  _atom_site_type_symbol
  La1      1.0000 0.11946  0.00456  0.15240  Biso   1.000  La
  Hf1      1.0000 0.12888  0.01683  0.67092  Biso   1.000  Hf
  Hf2      1.0000 0.13800  0.51458  0.16661  Biso   1.000  Hf
  Hf3      1.0000 0.13062  0.52491  0.66749  Biso   1.000  Hf
  Hf4      1.0000 0.13369  0.22574  0.41820  Biso   1.000  Hf
  Hf5      1.0000 0.13015  0.23345  0.91430  Biso   1.000  Hf
  La2      1.0000 0.11481  0.74623  0.40566  Biso   1.000  La
  Hf6      1.0000 0.12986  0.72943  0.92108  Biso   1.000  Hf
  Hf7      1.0000 0.35598  0.26678  0.17035  Biso   1.000  Hf
  Hf8      1.0000 0.35112  0.27142  0.66704  Biso   1.000  Hf
  Hf9      1.0000 0.36814  0.76690  0.16760  Biso   1.000  Hf
  Hf10     1.0000 0.35273  0.77058  0.66840  Biso   1.000  Hf
  Hf11     1.0000 0.35136  0.48138  0.41870  Biso   1.000  Hf
  Hf12     1.0000 0.35051  0.47805  0.91958  Biso   1.000  Hf
  Hf13     1.0000 0.36043  0.98252  0.41827  Biso   1.000  Hf
  Hf14     1.0000 0.35520  0.97946  0.91685  Biso   1.000  Hf
  Hf15     1.0000 0.63893  0.02173  0.07813  Biso   1.000  Hf
  Hf16     1.0000 0.63112  0.02153  0.58017  Biso   1.000  Hf
  Hf17     1.0000 0.63675  0.51798  0.07667  Biso   1.000  Hf
  Hf18     1.0000 0.62976  0.52002  0.57623  Biso   1.000  Hf
  Hf19     1.0000 0.63204  0.23145  0.32730  Biso   1.000  Hf
  Hf20     1.0000 0.62881  0.22924  0.82514  Biso   1.000  Hf
  Hf21     1.0000 0.63689  0.72690  0.32916  Biso   1.000  Hf
  Hf22     1.0000 0.62729  0.72798  0.82931  Biso   1.000  Hf
  Hf23     1.0000 0.85614  0.27337  0.07362  Biso   1.000  Hf
  Hf24     1.0000 0.85510  0.26980  0.57848  Biso   1.000  Hf
  Hf25     1.0000 0.85859  0.76598  0.08568  Biso   1.000  Hf
  Hf26     1.0000 0.84803  0.77269  0.58912  Biso   1.000  Hf
  Hf27     1.0000 0.85519  0.47496  0.32613  Biso   1.000  Hf
  Hf28     1.0000 0.85082  0.48059  0.82568  Biso   1.000  Hf
  Hf29     1.0000 0.84785  0.98094  0.33868  Biso   1.000  Hf
  Hf30     1.0000 0.85362  0.97912  0.83620  Biso   1.000  Hf
  Hf31     1.0000 0.02871  0.18217  0.07076  Biso   1.000  Hf
  Hf32     1.0000 0.02271  0.15829  0.58136  Biso   1.000  Hf
  Hf33     1.0000 0.03064  0.65692  0.07653  Biso   1.000  Hf
  Hf34     1.0000 0.00925  0.65492  0.58598  Biso   1.000  Hf
  Hf35     1.0000 0.01313  0.09597  0.33215  Biso   1.000  Hf
  Hf36     1.0000 0.02146  0.09161  0.82988  Biso   1.000  Hf
  Hf37     1.0000 0.02716  0.56542  0.32508  Biso   1.000  Hf
  Hf38     1.0000 0.01744  0.59460  0.82750  Biso   1.000  Hf
  Hf39     1.0000 0.46676  0.41119  0.07890  Biso   1.000  Hf
  Hf40     1.0000 0.46131  0.41188  0.57850  Biso   1.000  Hf
  Hf41     1.0000 0.47520  0.91273  0.07722  Biso   1.000  Hf
  Hf42     1.0000 0.46685  0.91051  0.57919  Biso   1.000  Hf
  Hf43     1.0000 0.46356  0.33905  0.32943  Biso   1.000  Hf
  Hf44     1.0000 0.45842  0.33586  0.82804  Biso   1.000  Hf
  Hf45     1.0000 0.47443  0.83757  0.32981  Biso   1.000  Hf
  Hf46     1.0000 0.46215  0.83771  0.82700  Biso   1.000  Hf
  Hf47     1.0000 0.27446  0.12922  0.29801  Biso   1.000  Hf
  Hf48     1.0000 0.26435  0.12267  0.78662  Biso   1.000  Hf
  Hf49     1.0000 0.28125  0.61426  0.28101  Biso   1.000  Hf
  Hf50     1.0000 0.26444  0.62531  0.79389  Biso   1.000  Hf
  Hf51     1.0000 0.28310  0.13232  0.03040  Biso   1.000  Hf
  Hf52     1.0000 0.26883  0.12881  0.54185  Biso   1.000  Hf
  Hf53     1.0000 0.27229  0.62084  0.03908  Biso   1.000  Hf
  Hf54     1.0000 0.27105  0.62343  0.54807  Biso   1.000  Hf
  Hf55     1.0000 0.21803  0.37030  0.29251  Biso   1.000  Hf
  Hf56     1.0000 0.21604  0.37609  0.79142  Biso   1.000  Hf
  Hf57     1.0000 0.24985  0.87928  0.28476  Biso   1.000  Hf
  Hf58     1.0000 0.21809  0.87385  0.79358  Biso   1.000  Hf
  Hf59     1.0000 0.22421  0.37529  0.04206  Biso   1.000  Hf
  Hf60     1.0000 0.21534  0.37707  0.54223  Biso   1.000  Hf
  Hf61     1.0000 0.24818  0.86066  0.03160  Biso   1.000  Hf
  Hf62     1.0000 0.22854  0.88626  0.54913  Biso   1.000  Hf
  Hf63     1.0000 0.52970  0.16250  0.16720  Biso   1.000  Hf
  Hf64     1.0000 0.52357  0.16378  0.66541  Biso   1.000  Hf
  Hf65     1.0000 0.53650  0.66190  0.16518  Biso   1.000  Hf
  Hf66     1.0000 0.52371  0.66245  0.66694  Biso   1.000  Hf
  Hf67     1.0000 0.52893  0.08797  0.41720  Biso   1.000  Hf
  Hf68     1.0000 0.52632  0.08545  0.91386  Biso   1.000  Hf
  Hf69     1.0000 0.52675  0.58621  0.41647  Biso   1.000  Hf
  Hf70     1.0000 0.52043  0.58623  0.91695  Biso   1.000  Hf
  Hf71     1.0000 0.96080  0.41227  0.16273  Biso   1.000  Hf
  Hf72     1.0000 0.96163  0.41042  0.66928  Biso   1.000  Hf
  Hf73     1.0000 0.96293  0.85497  0.23005  Biso   1.000  Hf
  Hf74     1.0000 0.96916  0.88830  0.70533  Biso   1.000  Hf
  Hf75     1.0000 0.96072  0.33446  0.41980  Biso   1.000  Hf
  Hf76     1.0000 0.95721  0.34233  0.91245  Biso   1.000  Hf
  Hf77     1.0000 0.95533  0.89078  0.47438  Biso   1.000  Hf
  Hf78     1.0000 0.97241  0.86698  0.96144  Biso   1.000  Hf
  Hf79     1.0000 0.76444  0.12459  0.95540  Biso   1.000  Hf
  Hf80     1.0000 0.76407  0.12665  0.45882  Biso   1.000  Hf
  Hf81     1.0000 0.76515  0.62304  0.95722  Biso   1.000  Hf
  Hf82     1.0000 0.77259  0.62496  0.45642  Biso   1.000  Hf
  Hf83     1.0000 0.77465  0.12657  0.20530  Biso   1.000  Hf
  Hf84     1.0000 0.76914  0.12422  0.70756  Biso   1.000  Hf
  Hf85     1.0000 0.77292  0.62223  0.20647  Biso   1.000  Hf
  Hf86     1.0000 0.76063  0.62471  0.70819  Biso   1.000  Hf
  Hf87     1.0000 0.71212  0.37475  0.95014  Biso   1.000  Hf
  Hf88     1.0000 0.71806  0.37415  0.45339  Biso   1.000  Hf
  Hf89     1.0000 0.71957  0.87057  0.95623  Biso   1.000  Hf
  Hf90     1.0000 0.71250  0.86993  0.45741  Biso   1.000  Hf
  Hf91     1.0000 0.71866  0.37442  0.20200  Biso   1.000  Hf
  Hf92     1.0000 0.71695  0.37508  0.70169  Biso   1.000  Hf
  Hf93     1.0000 0.72005  0.87882  0.20430  Biso   1.000  Hf
  Hf94     1.0000 0.71742  0.87866  0.70932  Biso   1.000  Hf
