data_image0
_cell_length_a       10.0272
_cell_length_b       10.4018
_cell_length_c       10.0572
_cell_angle_alpha    90
_cell_angle_beta     90
_cell_angle_gamma    90

_symmetry_space_group_name_H-M    "P 1"
_symmetry_int_tables_number       1

loop_
  _symmetry_equiv_pos_as_xyz
  'x, y, z'

loop_
  _atom_site_label
  _atom_site_occupancy
  _atom_site_fract_x
  _atom_site_fract_y
  _atom_site_fract_z
  _atom_site_thermal_displace_type
  _atom_site_B_iso_or_equiv
  _atom_site_type_symbol
  La1      1.0000 0.13009  0.99555  0.12280  Biso   1.000  La
  Hf1      1.0000 0.13534  0.01099  0.62304  Biso   1.000  Hf
  Hf2      1.0000 0.13429  0.52013  0.12342  Biso   1.000  Hf
  Hf3      1.0000 0.13519  0.51832  0.62652  Biso   1.000  Hf
  Hf4      1.0000 0.63022  0.01236  0.12533  Biso   1.000  Hf
  Hf5      1.0000 0.63530  0.01499  0.62651  Biso   1.000  Hf
  Hf6      1.0000 0.63645  0.51169  0.12723  Biso   1.000  Hf
  Hf7      1.0000 0.63757  0.51314  0.62680  Biso   1.000  Hf
  Hf8      1.0000 0.14948  0.23673  0.39534  Biso   1.000  Hf
  Hf9      1.0000 0.14053  0.23215  0.86660  Biso   1.000  Hf
  Hf10     1.0000 0.13650  0.73018  0.37734  Biso   1.000  Hf
  Hf11     1.0000 0.13816  0.73051  0.87498  Biso   1.000  Hf
  Hf12     1.0000 0.63299  0.23223  0.37467  Biso   1.000  Hf
  Hf13     1.0000 0.63462  0.23153  0.87648  Biso   1.000  Hf
  Hf14     1.0000 0.63455  0.72930  0.37949  Biso   1.000  Hf
  Hf15     1.0000 0.63771  0.72860  0.87567  Biso   1.000  Hf
  Hf16     1.0000 0.36297  0.26414  0.12562  Biso   1.000  Hf
  Hf17     1.0000 0.37281  0.26518  0.62895  Biso   1.000  Hf
  Hf18     1.0000 0.37453  0.75896  0.12376  Biso   1.000  Hf
  Hf19     1.0000 0.36984  0.76437  0.62515  Biso   1.000  Hf
  La2      1.0000 0.88278  0.25394  0.12484  Biso   1.000  La
  Hf20     1.0000 0.86753  0.26495  0.62351  Biso   1.000  Hf
  Hf21     1.0000 0.86109  0.76617  0.12842  Biso   1.000  Hf
  Hf22     1.0000 0.86813  0.76458  0.62519  Biso   1.000  Hf
  Hf23     1.0000 0.36932  0.48254  0.37422  Biso   1.000  Hf
  Hf24     1.0000 0.36926  0.48071  0.87744  Biso   1.000  Hf
  Hf25     1.0000 0.37050  0.98163  0.37446  Biso   1.000  Hf
  Hf26     1.0000 0.37226  0.97999  0.87303  Biso   1.000  Hf
  Hf27     1.0000 0.86728  0.48261  0.37601  Biso   1.000  Hf
  Hf28     1.0000 0.86819  0.48211  0.87292  Biso   1.000  Hf
  Hf29     1.0000 0.86147  0.98058  0.38041  Biso   1.000  Hf
  Hf30     1.0000 0.86451  0.98033  0.87529  Biso   1.000  Hf
  Hf31     1.0000 0.04510  0.18626  0.67548  Biso   1.000  Hf
  Hf32     1.0000 0.04019  0.69720  0.19285  Biso   1.000  Hf
  Hf33     1.0000 0.03797  0.68419  0.69519  Biso   1.000  Hf
  Hf34     1.0000 0.53095  0.18186  0.19558  Biso   1.000  Hf
  Hf35     1.0000 0.53780  0.18066  0.69716  Biso   1.000  Hf
  Hf36     1.0000 0.53644  0.67676  0.20054  Biso   1.000  Hf
  Hf37     1.0000 0.53834  0.68048  0.69471  Biso   1.000  Hf
  Hf38     1.0000 0.03919  0.06575  0.42482  Biso   1.000  Hf
  Hf39     1.0000 0.02015  0.08554  0.93770  Biso   1.000  Hf
  Hf40     1.0000 0.03808  0.56454  0.44592  Biso   1.000  Hf
  Hf41     1.0000 0.03592  0.57074  0.94433  Biso   1.000  Hf
  Hf42     1.0000 0.53550  0.06392  0.44872  Biso   1.000  Hf
  Hf43     1.0000 0.53253  0.06451  0.94439  Biso   1.000  Hf
  Hf44     1.0000 0.53606  0.56130  0.44735  Biso   1.000  Hf
  Hf45     1.0000 0.53765  0.56344  0.94717  Biso   1.000  Hf
  Hf46     1.0000 0.46077  0.43169  0.19414  Biso   1.000  Hf
  Hf47     1.0000 0.46930  0.43081  0.69730  Biso   1.000  Hf
  Hf48     1.0000 0.46085  0.93474  0.19140  Biso   1.000  Hf
  Hf49     1.0000 0.46857  0.93028  0.69523  Biso   1.000  Hf
  Hf50     1.0000 0.96831  0.44682  0.19796  Biso   1.000  Hf
  Hf51     1.0000 0.96349  0.43552  0.68362  Biso   1.000  Hf
  Hf52     1.0000 0.93092  0.94479  0.19415  Biso   1.000  Hf
  Hf53     1.0000 0.96560  0.93409  0.69278  Biso   1.000  Hf
  Hf54     1.0000 0.46208  0.31294  0.44562  Biso   1.000  Hf
  Hf55     1.0000 0.46598  0.31429  0.94533  Biso   1.000  Hf
  Hf56     1.0000 0.46747  0.81523  0.44720  Biso   1.000  Hf
  Hf57     1.0000 0.47515  0.81374  0.94677  Biso   1.000  Hf
  Hf58     1.0000 0.96436  0.30959  0.42909  Biso   1.000  Hf
  Hf59     1.0000 0.97558  0.32594  0.92380  Biso   1.000  Hf
  Hf60     1.0000 0.96636  0.81546  0.44503  Biso   1.000  Hf
  Hf61     1.0000 0.97681  0.82597  0.95385  Biso   1.000  Hf
  Hf62     1.0000 0.26477  0.12696  0.25865  Biso   1.000  Hf
  Hf63     1.0000 0.27086  0.11243  0.74799  Biso   1.000  Hf
  Hf64     1.0000 0.26867  0.60963  0.24944  Biso   1.000  Hf
  Hf65     1.0000 0.27351  0.61626  0.75004  Biso   1.000  Hf
  Hf66     1.0000 0.75372  0.10829  0.25880  Biso   1.000  Hf
  Hf67     1.0000 0.77391  0.11777  0.74763  Biso   1.000  Hf
  Hf68     1.0000 0.77235  0.61681  0.25041  Biso   1.000  Hf
  Hf69     1.0000 0.77349  0.61633  0.74802  Biso   1.000  Hf
  Hf70     1.0000 0.27624  0.12782  0.50673  Biso   1.000  Hf
  Hf71     1.0000 0.27263  0.13255  0.99365  Biso   1.000  Hf
  Hf72     1.0000 0.27312  0.63100  0.49979  Biso   1.000  Hf
  Hf73     1.0000 0.27411  0.62667  0.99887  Biso   1.000  Hf
  Hf74     1.0000 0.77037  0.13104  0.50117  Biso   1.000  Hf
  Hf75     1.0000 0.75924  0.11959  0.99446  Biso   1.000  Hf
  Hf76     1.0000 0.77196  0.62993  0.50036  Biso   1.000  Hf
  Hf77     1.0000 0.77162  0.63172  0.00018  Biso   1.000  Hf
  Hf78     1.0000 0.23433  0.38310  0.50352  Biso   1.000  Hf
  Hf79     1.0000 0.23021  0.38029  0.99968  Biso   1.000  Hf
  Hf80     1.0000 0.23217  0.88175  0.49745  Biso   1.000  Hf
  Hf81     1.0000 0.24650  0.86660  0.98883  Biso   1.000  Hf
  Hf82     1.0000 0.73292  0.37936  0.50113  Biso   1.000  Hf
  Hf83     1.0000 0.73282  0.37932  0.99646  Biso   1.000  Hf
  Hf84     1.0000 0.72998  0.87829  0.50350  Biso   1.000  Hf
  Hf85     1.0000 0.73131  0.87800  0.00022  Biso   1.000  Hf
  Hf86     1.0000 0.21960  0.36146  0.24937  Biso   1.000  Hf
  Hf87     1.0000 0.23468  0.36810  0.74782  Biso   1.000  Hf
  Hf88     1.0000 0.24855  0.85036  0.25726  Biso   1.000  Hf
  Hf89     1.0000 0.23083  0.86570  0.74459  Biso   1.000  Hf
  Hf90     1.0000 0.72260  0.37214  0.25463  Biso   1.000  Hf
  Hf91     1.0000 0.73209  0.36552  0.74912  Biso   1.000  Hf
  Hf92     1.0000 0.71843  0.86091  0.25288  Biso   1.000  Hf
  Hf93     1.0000 0.73321  0.86517  0.75078  Biso   1.000  Hf
