data_image0
_cell_length_a       10.2044
_cell_length_b       10.3446
_cell_length_c       10.4742
_cell_angle_alpha    90
_cell_angle_beta     80
_cell_angle_gamma    90

_symmetry_space_group_name_H-M    "P 1"
_symmetry_int_tables_number       1

loop_
  _symmetry_equiv_pos_as_xyz
  'x, y, z'

loop_
  _atom_site_label
  _atom_site_occupancy
  _atom_site_fract_x
  _atom_site_fract_y
  _atom_site_fract_z
  _atom_site_thermal_displace_type
  _atom_site_B_iso_or_equiv
  _atom_site_type_symbol
  La1      1.0000 0.12744  0.01169  0.13804  Biso   1.000  La
  Hf1      1.0000 0.13183  0.02329  0.64784  Biso   1.000  Hf
  Hf2      1.0000 0.13584  0.51691  0.14272  Biso   1.000  Hf
  Hf3      1.0000 0.13027  0.52231  0.64792  Biso   1.000  Hf
  Hf4      1.0000 0.64375  0.02199  0.14435  Biso   1.000  Hf
  Hf5      1.0000 0.62758  0.02463  0.64990  Biso   1.000  Hf
  Hf6      1.0000 0.63604  0.51793  0.14777  Biso   1.000  Hf
  Hf7      1.0000 0.62871  0.51957  0.64781  Biso   1.000  Hf
  Hf8      1.0000 0.13194  0.22765  0.39645  Biso   1.000  Hf
  Hf9      1.0000 0.12600  0.23347  0.89528  Biso   1.000  Hf
  La2      1.0000 0.12805  0.73672  0.39075  Biso   1.000  La
  Hf10     1.0000 0.12941  0.72849  0.89606  Biso   1.000  Hf
  Hf11     1.0000 0.63114  0.23345  0.39827  Biso   1.000  Hf
  Hf12     1.0000 0.62794  0.22980  0.89814  Biso   1.000  Hf
  Hf13     1.0000 0.63080  0.72664  0.39907  Biso   1.000  Hf
  Hf14     1.0000 0.63032  0.72818  0.89660  Biso   1.000  Hf
  Hf15     1.0000 0.35943  0.26868  0.10412  Biso   1.000  Hf
  Hf16     1.0000 0.35015  0.27244  0.60373  Biso   1.000  Hf
  Hf17     1.0000 0.36825  0.76605  0.09965  Biso   1.000  Hf
  Hf18     1.0000 0.35297  0.77112  0.60558  Biso   1.000  Hf
  Hf19     1.0000 0.85792  0.27386  0.10225  Biso   1.000  Hf
  Hf20     1.0000 0.85311  0.27200  0.60649  Biso   1.000  Hf
  Hf21     1.0000 0.85683  0.76432  0.10404  Biso   1.000  Hf
  Hf22     1.0000 0.84629  0.77187  0.60976  Biso   1.000  Hf
  Hf23     1.0000 0.35268  0.47901  0.35343  Biso   1.000  Hf
  Hf24     1.0000 0.35052  0.47853  0.85539  Biso   1.000  Hf
  Hf25     1.0000 0.36270  0.98437  0.35466  Biso   1.000  Hf
  Hf26     1.0000 0.35121  0.97856  0.85328  Biso   1.000  Hf
  Hf27     1.0000 0.85483  0.47725  0.35449  Biso   1.000  Hf
  Hf28     1.0000 0.85028  0.47908  0.85478  Biso   1.000  Hf
  Hf29     1.0000 0.84108  0.98360  0.36418  Biso   1.000  Hf
  Hf30     1.0000 0.85178  0.97870  0.85632  Biso   1.000  Hf
  Hf31     1.0000 0.03665  0.19506  0.07893  Biso   1.000  Hf
  Hf32     1.0000 0.02877  0.17373  0.58704  Biso   1.000  Hf
  Hf33     1.0000 0.04117  0.68194  0.08956  Biso   1.000  Hf
  Hf34     1.0000 0.01791  0.66920  0.59893  Biso   1.000  Hf
  Hf35     1.0000 0.53570  0.16648  0.07896  Biso   1.000  Hf
  Hf36     1.0000 0.52311  0.16840  0.58077  Biso   1.000  Hf
  Hf37     1.0000 0.54034  0.66515  0.07639  Biso   1.000  Hf
  Hf38     1.0000 0.52707  0.66795  0.58293  Biso   1.000  Hf
  Hf39     1.0000 0.02346  0.07207  0.35138  Biso   1.000  Hf
  Hf40     1.0000 0.02849  0.07682  0.83772  Biso   1.000  Hf
  Hf41     1.0000 0.03250  0.55746  0.32799  Biso   1.000  Hf
  Hf42     1.0000 0.02651  0.57524  0.83869  Biso   1.000  Hf
  Hf43     1.0000 0.53646  0.08258  0.33002  Biso   1.000  Hf
  Hf44     1.0000 0.52477  0.08413  0.83153  Biso   1.000  Hf
  Hf45     1.0000 0.52859  0.58122  0.32964  Biso   1.000  Hf
  Hf46     1.0000 0.52305  0.58281  0.83134  Biso   1.000  Hf
  Hf47     1.0000 0.46463  0.41330  0.17188  Biso   1.000  Hf
  Hf48     1.0000 0.45527  0.41768  0.67204  Biso   1.000  Hf
  Hf49     1.0000 0.47692  0.91339  0.16883  Biso   1.000  Hf
  Hf50     1.0000 0.45561  0.91779  0.67406  Biso   1.000  Hf
  Hf51     1.0000 0.95241  0.42957  0.15957  Biso   1.000  Hf
  Hf52     1.0000 0.95397  0.42185  0.66883  Biso   1.000  Hf
  Hf53     1.0000 0.92316  0.92703  0.17476  Biso   1.000  Hf
  Hf54     1.0000 0.95502  0.92110  0.66965  Biso   1.000  Hf
  Hf55     1.0000 0.45715  0.33339  0.42183  Biso   1.000  Hf
  Hf56     1.0000 0.45553  0.33413  0.92309  Biso   1.000  Hf
  Hf57     1.0000 0.45964  0.83077  0.42216  Biso   1.000  Hf
  Hf58     1.0000 0.46383  0.83605  0.92111  Biso   1.000  Hf
  Hf59     1.0000 0.95247  0.32370  0.41824  Biso   1.000  Hf
  Hf60     1.0000 0.94672  0.32671  0.91213  Biso   1.000  Hf
  Hf61     1.0000 0.92485  0.82563  0.42273  Biso   1.000  Hf
  Hf62     1.0000 0.95436  0.83066  0.92382  Biso   1.000  Hf
  Hf63     1.0000 0.27870  0.13485  0.24763  Biso   1.000  Hf
  Hf64     1.0000 0.26591  0.13027  0.73963  Biso   1.000  Hf
  Hf65     1.0000 0.28239  0.61806  0.22808  Biso   1.000  Hf
  Hf66     1.0000 0.26544  0.63025  0.74346  Biso   1.000  Hf
  Hf67     1.0000 0.77151  0.13507  0.24332  Biso   1.000  Hf
  Hf68     1.0000 0.76713  0.12957  0.74363  Biso   1.000  Hf
  Hf69     1.0000 0.77014  0.62902  0.24294  Biso   1.000  Hf
  Hf70     1.0000 0.76277  0.62811  0.74352  Biso   1.000  Hf
  Hf71     1.0000 0.26867  0.12568  0.49168  Biso   1.000  Hf
  Hf72     1.0000 0.27042  0.12698  0.98190  Biso   1.000  Hf
  Hf73     1.0000 0.27541  0.61439  0.49922  Biso   1.000  Hf
  Hf74     1.0000 0.26224  0.61748  0.98962  Biso   1.000  Hf
  Hf75     1.0000 0.76297  0.12446  0.49684  Biso   1.000  Hf
  Hf76     1.0000 0.76457  0.12080  0.99207  Biso   1.000  Hf
  Hf77     1.0000 0.76624  0.61810  0.49379  Biso   1.000  Hf
  Hf78     1.0000 0.76541  0.61941  0.99256  Biso   1.000  Hf
  Hf79     1.0000 0.22634  0.37861  0.00604  Biso   1.000  Hf
  Hf80     1.0000 0.21274  0.37857  0.50827  Biso   1.000  Hf
  Hf81     1.0000 0.22865  0.86575  0.99575  Biso   1.000  Hf
  Hf82     1.0000 0.22964  0.89158  0.51425  Biso   1.000  Hf
  Hf83     1.0000 0.72244  0.37991  0.00813  Biso   1.000  Hf
  Hf84     1.0000 0.71525  0.37850  0.51214  Biso   1.000  Hf
  Hf85     1.0000 0.72753  0.87767  0.00814  Biso   1.000  Hf
  Hf86     1.0000 0.70199  0.88216  0.51728  Biso   1.000  Hf
  Hf87     1.0000 0.21846  0.36907  0.25627  Biso   1.000  Hf
  Hf88     1.0000 0.21385  0.37269  0.75889  Biso   1.000  Hf
  Hf89     1.0000 0.25210  0.87308  0.24800  Biso   1.000  Hf
  Hf90     1.0000 0.21260  0.87100  0.75875  Biso   1.000  Hf
  Hf91     1.0000 0.71797  0.37220  0.26083  Biso   1.000  Hf
  Hf92     1.0000 0.71353  0.37089  0.76058  Biso   1.000  Hf
  Hf93     1.0000 0.70771  0.87017  0.26413  Biso   1.000  Hf
  Hf94     1.0000 0.71565  0.87189  0.76250  Biso   1.000  Hf
