data_image0
_cell_length_a       10.0678
_cell_length_b       10.4007
_cell_length_c       10.0856
_cell_angle_alpha    90
_cell_angle_beta     90
_cell_angle_gamma    90

_symmetry_space_group_name_H-M    "P 1"
_symmetry_int_tables_number       1

loop_
  _symmetry_equiv_pos_as_xyz
  'x, y, z'

loop_
  _atom_site_label
  _atom_site_occupancy
  _atom_site_fract_x
  _atom_site_fract_y
  _atom_site_fract_z
  _atom_site_thermal_displace_type
  _atom_site_B_iso_or_equiv
  _atom_site_type_symbol
  La1      1.0000 0.12130  0.00485  0.11709  Biso   1.000  La
  Hf1      1.0000 0.13695  0.01159  0.62624  Biso   1.000  Hf
  Hf2      1.0000 0.13377  0.51669  0.12417  Biso   1.000  Hf
  Hf3      1.0000 0.13615  0.51674  0.62605  Biso   1.000  Hf
  Hf4      1.0000 0.63352  0.01503  0.12507  Biso   1.000  Hf
  Hf5      1.0000 0.62670  0.01114  0.62305  Biso   1.000  Hf
  Hf6      1.0000 0.63309  0.51362  0.12504  Biso   1.000  Hf
  Hf7      1.0000 0.63478  0.51222  0.62671  Biso   1.000  Hf
  Hf8      1.0000 0.13652  0.23249  0.37374  Biso   1.000  Hf
  Hf9      1.0000 0.13887  0.23533  0.87368  Biso   1.000  Hf
  Hf10     1.0000 0.13439  0.73125  0.37653  Biso   1.000  Hf
  Hf11     1.0000 0.13648  0.73051  0.87577  Biso   1.000  Hf
  Hf12     1.0000 0.62853  0.23299  0.37165  Biso   1.000  Hf
  Hf13     1.0000 0.63214  0.23138  0.87501  Biso   1.000  Hf
  Hf14     1.0000 0.63141  0.73021  0.37870  Biso   1.000  Hf
  Hf15     1.0000 0.63656  0.72870  0.87390  Biso   1.000  Hf
  Hf16     1.0000 0.36442  0.26505  0.12583  Biso   1.000  Hf
  Hf17     1.0000 0.36371  0.26301  0.62322  Biso   1.000  Hf
  Hf18     1.0000 0.37132  0.76134  0.12407  Biso   1.000  Hf
  Hf19     1.0000 0.36658  0.76319  0.62490  Biso   1.000  Hf
  Hf20     1.0000 0.86267  0.26753  0.12565  Biso   1.000  Hf
  La2      1.0000 0.87539  0.25355  0.62360  Biso   1.000  La
  Hf21     1.0000 0.86107  0.76423  0.12895  Biso   1.000  Hf
  Hf22     1.0000 0.86750  0.76289  0.62414  Biso   1.000  Hf
  Hf23     1.0000 0.36444  0.48178  0.37480  Biso   1.000  Hf
  Hf24     1.0000 0.36736  0.48046  0.87507  Biso   1.000  Hf
  Hf25     1.0000 0.36432  0.98162  0.37186  Biso   1.000  Hf
  Hf26     1.0000 0.37195  0.98010  0.87569  Biso   1.000  Hf
  Hf27     1.0000 0.86439  0.48507  0.37279  Biso   1.000  Hf
  Hf28     1.0000 0.86470  0.48166  0.87765  Biso   1.000  Hf
  Hf29     1.0000 0.85904  0.98074  0.38078  Biso   1.000  Hf
  Hf30     1.0000 0.86181  0.97856  0.87246  Biso   1.000  Hf
  Hf31     1.0000 0.02971  0.19578  0.19974  Biso   1.000  Hf
  Hf32     1.0000 0.07635  0.19215  0.68256  Biso   1.000  Hf
  Hf33     1.0000 0.03492  0.68595  0.19721  Biso   1.000  Hf
  Hf34     1.0000 0.03861  0.68823  0.69558  Biso   1.000  Hf
  Hf35     1.0000 0.53584  0.18310  0.19153  Biso   1.000  Hf
  Hf36     1.0000 0.53251  0.18242  0.69349  Biso   1.000  Hf
  Hf37     1.0000 0.53444  0.67826  0.19889  Biso   1.000  Hf
  Hf38     1.0000 0.53473  0.67944  0.69612  Biso   1.000  Hf
  Hf39     1.0000 0.02418  0.07178  0.44996  Biso   1.000  Hf
  Hf40     1.0000 0.02830  0.07385  0.91130  Biso   1.000  Hf
  Hf41     1.0000 0.03265  0.56884  0.44925  Biso   1.000  Hf
  Hf42     1.0000 0.03318  0.56974  0.94711  Biso   1.000  Hf
  Hf43     1.0000 0.52522  0.06608  0.44551  Biso   1.000  Hf
  Hf44     1.0000 0.53500  0.06395  0.94639  Biso   1.000  Hf
  Hf45     1.0000 0.53191  0.56469  0.44676  Biso   1.000  Hf
  Hf46     1.0000 0.53508  0.56350  0.94647  Biso   1.000  Hf
  Hf47     1.0000 0.46544  0.43105  0.19646  Biso   1.000  Hf
  Hf48     1.0000 0.46402  0.43114  0.69276  Biso   1.000  Hf
  Hf49     1.0000 0.46456  0.93355  0.19172  Biso   1.000  Hf
  Hf50     1.0000 0.46560  0.92729  0.69780  Biso   1.000  Hf
  Hf51     1.0000 0.95905  0.44137  0.18667  Biso   1.000  Hf
  Hf52     1.0000 0.97408  0.44393  0.70743  Biso   1.000  Hf
  Hf53     1.0000 0.94002  0.92741  0.20654  Biso   1.000  Hf
  Hf54     1.0000 0.96049  0.93860  0.68907  Biso   1.000  Hf
  Hf55     1.0000 0.46024  0.31373  0.44272  Biso   1.000  Hf
  Hf56     1.0000 0.46521  0.31533  0.94584  Biso   1.000  Hf
  Hf57     1.0000 0.46651  0.81622  0.44917  Biso   1.000  Hf
  Hf58     1.0000 0.47436  0.81346  0.94769  Biso   1.000  Hf
  Hf59     1.0000 0.97076  0.32777  0.42415  Biso   1.000  Hf
  Hf60     1.0000 0.96549  0.31533  0.94331  Biso   1.000  Hf
  Hf61     1.0000 0.96592  0.81671  0.44718  Biso   1.000  Hf
  Hf62     1.0000 0.97464  0.82330  0.95665  Biso   1.000  Hf
  Hf63     1.0000 0.27751  0.12455  0.25339  Biso   1.000  Hf
  Hf64     1.0000 0.28201  0.11202  0.74747  Biso   1.000  Hf
  Hf65     1.0000 0.26802  0.61180  0.24853  Biso   1.000  Hf
  Hf66     1.0000 0.27118  0.61625  0.74956  Biso   1.000  Hf
  Hf67     1.0000 0.76667  0.11689  0.24850  Biso   1.000  Hf
  Hf68     1.0000 0.75144  0.10279  0.75539  Biso   1.000  Hf
  Hf69     1.0000 0.76747  0.61728  0.24820  Biso   1.000  Hf
  Hf70     1.0000 0.77279  0.61497  0.74789  Biso   1.000  Hf
  Hf71     1.0000 0.26742  0.12700  0.49885  Biso   1.000  Hf
  Hf72     1.0000 0.27415  0.13404  0.99157  Biso   1.000  Hf
  Hf73     1.0000 0.27049  0.63193  0.49841  Biso   1.000  Hf
  Hf74     1.0000 0.27062  0.62607  0.99909  Biso   1.000  Hf
  Hf75     1.0000 0.75111  0.12187  0.49146  Biso   1.000  Hf
  Hf76     1.0000 0.77063  0.12922  0.99925  Biso   1.000  Hf
  Hf77     1.0000 0.76909  0.63113  0.49918  Biso   1.000  Hf
  Hf78     1.0000 0.76859  0.62874  0.99850  Biso   1.000  Hf
  Hf79     1.0000 0.22907  0.38239  0.49909  Biso   1.000  Hf
  Hf80     1.0000 0.23037  0.38170  0.99938  Biso   1.000  Hf
  Hf81     1.0000 0.22973  0.88107  0.49735  Biso   1.000  Hf
  Hf82     1.0000 0.24518  0.86756  0.98857  Biso   1.000  Hf
  Hf83     1.0000 0.72419  0.38531  0.49180  Biso   1.000  Hf
  Hf84     1.0000 0.73102  0.38177  0.00083  Biso   1.000  Hf
  Hf85     1.0000 0.72769  0.87635  0.50217  Biso   1.000  Hf
  Hf86     1.0000 0.73368  0.88015  0.00035  Biso   1.000  Hf
  Hf87     1.0000 0.22792  0.36816  0.24786  Biso   1.000  Hf
  Hf88     1.0000 0.23640  0.36828  0.75010  Biso   1.000  Hf
  Hf89     1.0000 0.24283  0.85292  0.25388  Biso   1.000  Hf
  Hf90     1.0000 0.23034  0.86507  0.74601  Biso   1.000  Hf
  Hf91     1.0000 0.72836  0.36725  0.24808  Biso   1.000  Hf
  Hf92     1.0000 0.72081  0.37339  0.75628  Biso   1.000  Hf
  Hf93     1.0000 0.71702  0.86447  0.25175  Biso   1.000  Hf
  Hf94     1.0000 0.73299  0.85923  0.74917  Biso   1.000  Hf
