data_image0
_cell_length_a       10.0893
_cell_length_b       10.1898
_cell_length_c       10.1073
_cell_angle_alpha    90
_cell_angle_beta     90
_cell_angle_gamma    90

_symmetry_space_group_name_H-M    "P 1"
_symmetry_int_tables_number       1

loop_
  _symmetry_equiv_pos_as_xyz
  'x, y, z'

loop_
  _atom_site_label
  _atom_site_occupancy
  _atom_site_fract_x
  _atom_site_fract_y
  _atom_site_fract_z
  _atom_site_thermal_displace_type
  _atom_site_B_iso_or_equiv
  _atom_site_type_symbol
  Hf1      1.0000 0.12378  0.98475  0.13810  Biso   1.000  Hf
  Hf2      1.0000 0.13190  0.99963  0.62403  Biso   1.000  Hf
  Hf3      1.0000 0.12607  0.49823  0.12022  Biso   1.000  Hf
  Hf4      1.0000 0.12595  0.49008  0.62343  Biso   1.000  Hf
  Hf5      1.0000 0.62971  0.98088  0.14462  Biso   1.000  Hf
  Hf6      1.0000 0.63927  0.99783  0.62554  Biso   1.000  Hf
  Hf7      1.0000 0.63144  0.50079  0.11933  Biso   1.000  Hf
  Hf8      1.0000 0.63009  0.49022  0.62187  Biso   1.000  Hf
  Hf9      1.0000 0.12844  0.24468  0.36887  Biso   1.000  Hf
  Hf10     1.0000 0.13610  0.25186  0.86273  Biso   1.000  Hf
  Hf11     1.0000 0.13071  0.74234  0.38200  Biso   1.000  Hf
  Hf12     1.0000 0.13046  0.74248  0.87669  Biso   1.000  Hf
  Hf13     1.0000 0.62663  0.24492  0.37153  Biso   1.000  Hf
  Hf14     1.0000 0.60554  0.22839  0.88526  Biso   1.000  Hf
  Hf15     1.0000 0.63961  0.74097  0.38323  Biso   1.000  Hf
  Hf16     1.0000 0.63502  0.74159  0.87733  Biso   1.000  Hf
  Hf17     1.0000 0.37707  0.26096  0.13601  Biso   1.000  Hf
  Hf18     1.0000 0.38185  0.24344  0.62246  Biso   1.000  Hf
  Hf19     1.0000 0.38141  0.74678  0.12834  Biso   1.000  Hf
  Hf20     1.0000 0.37965  0.73892  0.62643  Biso   1.000  Hf
  La1      1.0000 0.87552  0.24378  0.11739  Biso   1.000  La
  Hf21     1.0000 0.87900  0.24757  0.62303  Biso   1.000  Hf
  Hf22     1.0000 0.88158  0.74177  0.12709  Biso   1.000  Hf
  Hf23     1.0000 0.88344  0.74164  0.62968  Biso   1.000  Hf
  Hf24     1.0000 0.38992  0.98719  0.38222  Biso   1.000  Hf
  Hf25     1.0000 0.38679  0.97544  0.86472  Biso   1.000  Hf
  Hf26     1.0000 0.37997  0.49923  0.37497  Biso   1.000  Hf
  Hf27     1.0000 0.38524  0.49235  0.87463  Biso   1.000  Hf
  Hf28     1.0000 0.88362  0.99313  0.38233  Biso   1.000  Hf
  La2      1.0000 0.88167  0.99647  0.88033  Biso   1.000  La
  Hf29     1.0000 0.87830  0.49302  0.37234  Biso   1.000  Hf
  Hf30     1.0000 0.88061  0.48954  0.86922  Biso   1.000  Hf
  Hf31     1.0000 0.01054  0.13930  0.49007  Biso   1.000  Hf
  Hf32     1.0000 0.01580  0.62448  0.99039  Biso   1.000  Hf
  Hf33     1.0000 0.00289  0.63592  0.49181  Biso   1.000  Hf
  Hf34     1.0000 0.43837  0.13779  0.97723  Biso   1.000  Hf
  Hf35     1.0000 0.51088  0.13651  0.49465  Biso   1.000  Hf
  Hf36     1.0000 0.51393  0.62912  0.99067  Biso   1.000  Hf
  Hf37     1.0000 0.50398  0.63759  0.48960  Biso   1.000  Hf
  Hf38     1.0000 0.99874  0.09508  0.25039  Biso   1.000  Hf
  Hf39     1.0000 0.01192  0.11621  0.73304  Biso   1.000  Hf
  Hf40     1.0000 0.99794  0.60359  0.23958  Biso   1.000  Hf
  Hf41     1.0000 0.00836  0.60323  0.74008  Biso   1.000  Hf
  Hf42     1.0000 0.49050  0.10361  0.23865  Biso   1.000  Hf
  Hf43     1.0000 0.50718  0.09271  0.74283  Biso   1.000  Hf
  Hf44     1.0000 0.49579  0.60158  0.23546  Biso   1.000  Hf
  Hf45     1.0000 0.50719  0.59532  0.74041  Biso   1.000  Hf
  Hf46     1.0000 0.01161  0.36302  0.25966  Biso   1.000  Hf
  Hf47     1.0000 0.00936  0.35621  0.75119  Biso   1.000  Hf
  Hf48     1.0000 0.01605  0.85173  0.26144  Biso   1.000  Hf
  Hf49     1.0000 0.01287  0.84864  0.75344  Biso   1.000  Hf
  Hf50     1.0000 0.50219  0.35551  0.26190  Biso   1.000  Hf
  Hf51     1.0000 0.50587  0.34744  0.75527  Biso   1.000  Hf
  Hf52     1.0000 0.51424  0.84826  0.26435  Biso   1.000  Hf
  Hf53     1.0000 0.50034  0.84089  0.76444  Biso   1.000  Hf
  Hf54     1.0000 0.01194  0.38200  0.99413  Biso   1.000  Hf
  Hf55     1.0000 0.00037  0.38890  0.50556  Biso   1.000  Hf
  Hf56     1.0000 0.99909  0.87571  0.02036  Biso   1.000  Hf
  Hf57     1.0000 0.00890  0.88718  0.51055  Biso   1.000  Hf
  Hf58     1.0000 0.49671  0.39155  0.01132  Biso   1.000  Hf
  Hf59     1.0000 0.49964  0.38746  0.50826  Biso   1.000  Hf
  Hf60     1.0000 0.49363  0.89534  0.01382  Biso   1.000  Hf
  Hf61     1.0000 0.50877  0.88762  0.51407  Biso   1.000  Hf
  Hf62     1.0000 0.23838  0.14620  0.22775  Biso   1.000  Hf
  Hf63     1.0000 0.26380  0.13219  0.76115  Biso   1.000  Hf
  Hf64     1.0000 0.25484  0.64467  0.26197  Biso   1.000  Hf
  Hf65     1.0000 0.26410  0.63676  0.76631  Biso   1.000  Hf
  Hf66     1.0000 0.74137  0.11846  0.27092  Biso   1.000  Hf
  Hf67     1.0000 0.74679  0.15292  0.75410  Biso   1.000  Hf
  Hf68     1.0000 0.75181  0.63330  0.26005  Biso   1.000  Hf
  Hf69     1.0000 0.76358  0.63830  0.76490  Biso   1.000  Hf
  Hf70     1.0000 0.07798  0.11453  0.99562  Biso   1.000  Hf
  Hf71     1.0000 0.26323  0.09681  0.50056  Biso   1.000  Hf
  Hf72     1.0000 0.26113  0.61189  0.01401  Biso   1.000  Hf
  Hf73     1.0000 0.25799  0.59706  0.51343  Biso   1.000  Hf
  Hf74     1.0000 0.69754  0.11214  0.01073  Biso   1.000  Hf
  Hf75     1.0000 0.77026  0.09731  0.51641  Biso   1.000  Hf
  Hf76     1.0000 0.76381  0.60750  0.01335  Biso   1.000  Hf
  Hf77     1.0000 0.75748  0.60034  0.50982  Biso   1.000  Hf
  Hf78     1.0000 0.25930  0.34390  0.99435  Biso   1.000  Hf
  Hf79     1.0000 0.25503  0.34476  0.49197  Biso   1.000  Hf
  Hf80     1.0000 0.25451  0.86445  0.98807  Biso   1.000  Hf
  Hf81     1.0000 0.26574  0.84495  0.48660  Biso   1.000  Hf
  Hf82     1.0000 0.74609  0.35621  0.96701  Biso   1.000  Hf
  Hf83     1.0000 0.75562  0.34683  0.48253  Biso   1.000  Hf
  Hf84     1.0000 0.74132  0.85137  0.00971  Biso   1.000  Hf
  Hf85     1.0000 0.76247  0.84914  0.49578  Biso   1.000  Hf
  Hf86     1.0000 0.25850  0.39884  0.24293  Biso   1.000  Hf
  Hf87     1.0000 0.26046  0.38698  0.74093  Biso   1.000  Hf
  Hf88     1.0000 0.27288  0.89470  0.23904  Biso   1.000  Hf
  Hf89     1.0000 0.25978  0.88426  0.73114  Biso   1.000  Hf
  Hf90     1.0000 0.74881  0.39011  0.24123  Biso   1.000  Hf
  Hf91     1.0000 0.77524  0.40055  0.71904  Biso   1.000  Hf
  Hf92     1.0000 0.76943  0.87927  0.24980  Biso   1.000  Hf
  Hf93     1.0000 0.74865  0.87776  0.74020  Biso   1.000  Hf
