data_image0
_cell_length_a       10.0919
_cell_length_b       10.2505
_cell_length_c       10.092
_cell_angle_alpha    90
_cell_angle_beta     90
_cell_angle_gamma    90

_symmetry_space_group_name_H-M    "P 1"
_symmetry_int_tables_number       1

loop_
  _symmetry_equiv_pos_as_xyz
  'x, y, z'

loop_
  _atom_site_label
  _atom_site_occupancy
  _atom_site_fract_x
  _atom_site_fract_y
  _atom_site_fract_z
  _atom_site_thermal_displace_type
  _atom_site_B_iso_or_equiv
  _atom_site_type_symbol
  La1      1.0000 0.12561  0.99982  0.12587  Biso   1.000  La
  Hf1      1.0000 0.12559  0.99989  0.62588  Biso   1.000  Hf
  La2      1.0000 0.12571  0.49984  0.12584  Biso   1.000  La
  Hf2      1.0000 0.12571  0.49988  0.62587  Biso   1.000  Hf
  Hf3      1.0000 0.62557  0.99984  0.12587  Biso   1.000  Hf
  Hf4      1.0000 0.62558  0.99991  0.62585  Biso   1.000  Hf
  Hf5      1.0000 0.62569  0.49983  0.12587  Biso   1.000  Hf
  Hf6      1.0000 0.62572  0.49988  0.62585  Biso   1.000  Hf
  Hf7      1.0000 0.12578  0.24988  0.38076  Biso   1.000  Hf
  Hf8      1.0000 0.12578  0.24991  0.87087  Biso   1.000  Hf
  Hf9      1.0000 0.12566  0.74986  0.38077  Biso   1.000  Hf
  Hf10     1.0000 0.12570  0.74992  0.87086  Biso   1.000  Hf
  Hf11     1.0000 0.62579  0.24986  0.37574  Biso   1.000  Hf
  Hf12     1.0000 0.62581  0.24994  0.87585  Biso   1.000  Hf
  Hf13     1.0000 0.62566  0.74984  0.37574  Biso   1.000  Hf
  Hf14     1.0000 0.62568  0.74993  0.87584  Biso   1.000  Hf
  Hf15     1.0000 0.38071  0.24984  0.12580  Biso   1.000  Hf
  Hf16     1.0000 0.37574  0.24988  0.62579  Biso   1.000  Hf
  Hf17     1.0000 0.38060  0.74982  0.12582  Biso   1.000  Hf
  Hf18     1.0000 0.37563  0.74991  0.62580  Biso   1.000  Hf
  Hf19     1.0000 0.87084  0.24982  0.12579  Biso   1.000  Hf
  Hf20     1.0000 0.87584  0.24984  0.62581  Biso   1.000  Hf
  Hf21     1.0000 0.87073  0.74982  0.12582  Biso   1.000  Hf
  Hf22     1.0000 0.87571  0.74990  0.62577  Biso   1.000  Hf
  Hf23     1.0000 0.37814  0.00178  0.37823  Biso   1.000  Hf
  Hf24     1.0000 0.37792  0.99801  0.87352  Biso   1.000  Hf
  Hf25     1.0000 0.37799  0.50178  0.37823  Biso   1.000  Hf
  Hf26     1.0000 0.37804  0.49801  0.87348  Biso   1.000  Hf
  Hf27     1.0000 0.87324  0.99792  0.37816  Biso   1.000  Hf
  Hf28     1.0000 0.87346  0.00181  0.87357  Biso   1.000  Hf
  Hf29     1.0000 0.87336  0.49791  0.37818  Biso   1.000  Hf
  Hf30     1.0000 0.87335  0.50188  0.87354  Biso   1.000  Hf
  Hf31     1.0000 0.99846  0.14953  0.99851  Biso   1.000  Hf
  Hf32     1.0000 0.00717  0.14770  0.51228  Biso   1.000  Hf
  Hf33     1.0000 0.99832  0.64954  0.99848  Biso   1.000  Hf
  Hf34     1.0000 0.00701  0.64770  0.51228  Biso   1.000  Hf
  Hf35     1.0000 0.51223  0.14767  0.00719  Biso   1.000  Hf
  Hf36     1.0000 0.50408  0.14843  0.50410  Biso   1.000  Hf
  Hf37     1.0000 0.51213  0.64768  0.00720  Biso   1.000  Hf
  Hf38     1.0000 0.50390  0.64842  0.50408  Biso   1.000  Hf
  Hf39     1.0000 0.98644  0.11606  0.26535  Biso   1.000  Hf
  Hf40     1.0000 0.99936  0.10169  0.75511  Biso   1.000  Hf
  Hf41     1.0000 0.98627  0.61606  0.26532  Biso   1.000  Hf
  Hf42     1.0000 0.99927  0.60169  0.75508  Biso   1.000  Hf
  Hf43     1.0000 0.49671  0.10167  0.25246  Biso   1.000  Hf
  Hf44     1.0000 0.49962  0.10199  0.75219  Biso   1.000  Hf
  Hf45     1.0000 0.49652  0.60166  0.25242  Biso   1.000  Hf
  Hf46     1.0000 0.49952  0.60198  0.75218  Biso   1.000  Hf
  Hf47     1.0000 0.99836  0.35024  0.25321  Biso   1.000  Hf
  Hf48     1.0000 0.00711  0.35202  0.73938  Biso   1.000  Hf
  Hf49     1.0000 0.99822  0.85026  0.25325  Biso   1.000  Hf
  Hf50     1.0000 0.00693  0.85203  0.73944  Biso   1.000  Hf
  Hf51     1.0000 0.51217  0.35198  0.24451  Biso   1.000  Hf
  Hf52     1.0000 0.50397  0.35133  0.74762  Biso   1.000  Hf
  Hf53     1.0000 0.51200  0.85200  0.24457  Biso   1.000  Hf
  Hf54     1.0000 0.50381  0.85134  0.74766  Biso   1.000  Hf
  Hf55     1.0000 0.98631  0.38372  0.98633  Biso   1.000  Hf
  Hf56     1.0000 0.99927  0.39803  0.49661  Biso   1.000  Hf
  Hf57     1.0000 0.98625  0.88373  0.98637  Biso   1.000  Hf
  Hf58     1.0000 0.99912  0.89803  0.49665  Biso   1.000  Hf
  Hf59     1.0000 0.49656  0.39812  0.99928  Biso   1.000  Hf
  Hf60     1.0000 0.49949  0.39779  0.49950  Biso   1.000  Hf
  Hf61     1.0000 0.49650  0.89811  0.99930  Biso   1.000  Hf
  Hf62     1.0000 0.49935  0.89779  0.49955  Biso   1.000  Hf
  Hf63     1.0000 0.25324  0.14939  0.25327  Biso   1.000  Hf
  Hf64     1.0000 0.24461  0.14769  0.73952  Biso   1.000  Hf
  Hf65     1.0000 0.25308  0.64941  0.25324  Biso   1.000  Hf
  Hf66     1.0000 0.24450  0.64770  0.73948  Biso   1.000  Hf
  Hf67     1.0000 0.73952  0.14761  0.24465  Biso   1.000  Hf
  Hf68     1.0000 0.74769  0.14846  0.74774  Biso   1.000  Hf
  Hf69     1.0000 0.73933  0.64764  0.24459  Biso   1.000  Hf
  Hf70     1.0000 0.74760  0.64846  0.74771  Biso   1.000  Hf
  Hf71     1.0000 0.26532  0.11617  0.98642  Biso   1.000  Hf
  Hf72     1.0000 0.25242  0.10178  0.49673  Biso   1.000  Hf
  Hf73     1.0000 0.26520  0.61617  0.98639  Biso   1.000  Hf
  Hf74     1.0000 0.25224  0.60178  0.49667  Biso   1.000  Hf
  Hf75     1.0000 0.75505  0.10182  0.99938  Biso   1.000  Hf
  Hf76     1.0000 0.75219  0.10194  0.49963  Biso   1.000  Hf
  Hf77     1.0000 0.75491  0.60182  0.99936  Biso   1.000  Hf
  Hf78     1.0000 0.75203  0.60194  0.49959  Biso   1.000  Hf
  Hf79     1.0000 0.25315  0.35038  0.99845  Biso   1.000  Hf
  Hf80     1.0000 0.24454  0.35210  0.51219  Biso   1.000  Hf
  Hf81     1.0000 0.25307  0.85038  0.99847  Biso   1.000  Hf
  Hf82     1.0000 0.24438  0.85210  0.51222  Biso   1.000  Hf
  Hf83     1.0000 0.73936  0.35200  0.00714  Biso   1.000  Hf
  Hf84     1.0000 0.74760  0.35129  0.50403  Biso   1.000  Hf
  Hf85     1.0000 0.73932  0.85203  0.00705  Biso   1.000  Hf
  Hf86     1.0000 0.74745  0.85129  0.50399  Biso   1.000  Hf
  Hf87     1.0000 0.26522  0.38362  0.26527  Biso   1.000  Hf
  Hf88     1.0000 0.25232  0.39802  0.75500  Biso   1.000  Hf
  Hf89     1.0000 0.26507  0.88362  0.26532  Biso   1.000  Hf
  Hf90     1.0000 0.25213  0.89803  0.75505  Biso   1.000  Hf
  Hf91     1.0000 0.75492  0.39795  0.25238  Biso   1.000  Hf
  Hf92     1.0000 0.75207  0.39781  0.75213  Biso   1.000  Hf
  Hf93     1.0000 0.75479  0.89795  0.25233  Biso   1.000  Hf
  Hf94     1.0000 0.75191  0.89783  0.75209  Biso   1.000  Hf
