data_image0
_cell_length_a       10.2133
_cell_length_b       10.3314
_cell_length_c       10.5181
_cell_angle_alpha    90
_cell_angle_beta     80
_cell_angle_gamma    90

_symmetry_space_group_name_H-M    "P 1"
_symmetry_int_tables_number       1

loop_
  _symmetry_equiv_pos_as_xyz
  'x, y, z'

loop_
  _atom_site_label
  _atom_site_occupancy
  _atom_site_fract_x
  _atom_site_fract_y
  _atom_site_fract_z
  _atom_site_thermal_displace_type
  _atom_site_B_iso_or_equiv
  _atom_site_type_symbol
  La1      1.0000 0.12407  0.00669  0.14101  Biso   1.000  La
  Hf1      1.0000 0.13371  0.02197  0.64759  Biso   1.000  Hf
  Hf2      1.0000 0.13799  0.51843  0.14509  Biso   1.000  Hf
  Hf3      1.0000 0.13235  0.52151  0.64687  Biso   1.000  Hf
  Hf4      1.0000 0.64425  0.01612  0.14640  Biso   1.000  Hf
  Hf5      1.0000 0.63138  0.02325  0.64925  Biso   1.000  Hf
  Hf6      1.0000 0.63723  0.52038  0.14796  Biso   1.000  Hf
  Hf7      1.0000 0.63168  0.52199  0.64616  Biso   1.000  Hf
  Hf8      1.0000 0.13050  0.22863  0.40237  Biso   1.000  Hf
  Hf9      1.0000 0.12707  0.23402  0.89354  Biso   1.000  Hf
  Hf10     1.0000 0.13372  0.72658  0.39672  Biso   1.000  Hf
  Hf11     1.0000 0.13401  0.72681  0.89651  Biso   1.000  Hf
  Hf12     1.0000 0.63149  0.23047  0.39607  Biso   1.000  Hf
  Hf13     1.0000 0.63754  0.22957  0.89303  Biso   1.000  Hf
  Hf14     1.0000 0.63137  0.72725  0.39997  Biso   1.000  Hf
  Hf15     1.0000 0.63246  0.72963  0.89520  Biso   1.000  Hf
  La2      1.0000 0.36215  0.25827  0.10907  Biso   1.000  La
  Hf16     1.0000 0.35390  0.27153  0.60443  Biso   1.000  Hf
  Hf17     1.0000 0.36611  0.76692  0.10437  Biso   1.000  Hf
  Hf18     1.0000 0.35315  0.77178  0.60478  Biso   1.000  Hf
  Hf19     1.0000 0.85747  0.27301  0.10257  Biso   1.000  Hf
  Hf20     1.0000 0.85363  0.27359  0.60491  Biso   1.000  Hf
  Hf21     1.0000 0.85746  0.76227  0.10184  Biso   1.000  Hf
  Hf22     1.0000 0.85577  0.77199  0.60517  Biso   1.000  Hf
  Hf23     1.0000 0.35526  0.48106  0.35523  Biso   1.000  Hf
  Hf24     1.0000 0.35358  0.47778  0.85398  Biso   1.000  Hf
  Hf25     1.0000 0.35577  0.97823  0.35700  Biso   1.000  Hf
  Hf26     1.0000 0.35410  0.97581  0.85195  Biso   1.000  Hf
  Hf27     1.0000 0.85600  0.47994  0.35440  Biso   1.000  Hf
  Hf28     1.0000 0.85288  0.48105  0.85299  Biso   1.000  Hf
  Hf29     1.0000 0.84490  0.97975  0.36363  Biso   1.000  Hf
  Hf30     1.0000 0.85573  0.97720  0.85579  Biso   1.000  Hf
  Hf31     1.0000 0.03539  0.19197  0.07702  Biso   1.000  Hf
  Hf32     1.0000 0.02743  0.17057  0.58580  Biso   1.000  Hf
  Hf33     1.0000 0.03787  0.67223  0.08089  Biso   1.000  Hf
  Hf34     1.0000 0.02830  0.66801  0.58016  Biso   1.000  Hf
  Hf35     1.0000 0.56472  0.16906  0.07369  Biso   1.000  Hf
  Hf36     1.0000 0.52726  0.16826  0.58009  Biso   1.000  Hf
  Hf37     1.0000 0.54162  0.67191  0.07968  Biso   1.000  Hf
  Hf38     1.0000 0.52736  0.66888  0.58323  Biso   1.000  Hf
  Hf39     1.0000 0.01014  0.08950  0.34640  Biso   1.000  Hf
  Hf40     1.0000 0.02889  0.08081  0.83070  Biso   1.000  Hf
  Hf41     1.0000 0.02825  0.58465  0.32908  Biso   1.000  Hf
  Hf42     1.0000 0.02719  0.58203  0.83001  Biso   1.000  Hf
  Hf43     1.0000 0.52990  0.08344  0.32849  Biso   1.000  Hf
  Hf44     1.0000 0.52823  0.08354  0.83025  Biso   1.000  Hf
  Hf45     1.0000 0.53154  0.58264  0.33470  Biso   1.000  Hf
  Hf46     1.0000 0.52720  0.58461  0.82939  Biso   1.000  Hf
  Hf47     1.0000 0.46277  0.43463  0.17492  Biso   1.000  Hf
  Hf48     1.0000 0.45789  0.42097  0.66719  Biso   1.000  Hf
  Hf49     1.0000 0.46153  0.92455  0.16804  Biso   1.000  Hf
  Hf50     1.0000 0.45892  0.91726  0.67056  Biso   1.000  Hf
  Hf51     1.0000 0.95750  0.42495  0.16929  Biso   1.000  Hf
  Hf52     1.0000 0.95857  0.42041  0.66912  Biso   1.000  Hf
  Hf53     1.0000 0.92340  0.92019  0.17796  Biso   1.000  Hf
  Hf54     1.0000 0.95925  0.91683  0.67222  Biso   1.000  Hf
  Hf55     1.0000 0.45671  0.32995  0.41831  Biso   1.000  Hf
  Hf56     1.0000 0.46786  0.33609  0.90695  Biso   1.000  Hf
  Hf57     1.0000 0.45915  0.83095  0.42449  Biso   1.000  Hf
  Hf58     1.0000 0.46590  0.83638  0.92194  Biso   1.000  Hf
  Hf59     1.0000 0.95688  0.33502  0.42384  Biso   1.000  Hf
  Hf60     1.0000 0.94991  0.33214  0.91462  Biso   1.000  Hf
  Hf61     1.0000 0.96015  0.83412  0.42028  Biso   1.000  Hf
  Hf62     1.0000 0.96157  0.83468  0.92605  Biso   1.000  Hf
  Hf63     1.0000 0.25773  0.11919  0.26677  Biso   1.000  Hf
  Hf64     1.0000 0.26936  0.12965  0.73723  Biso   1.000  Hf
  Hf65     1.0000 0.27220  0.62457  0.24007  Biso   1.000  Hf
  Hf66     1.0000 0.26879  0.62928  0.74125  Biso   1.000  Hf
  Hf67     1.0000 0.77023  0.13131  0.24385  Biso   1.000  Hf
  Hf68     1.0000 0.77025  0.12951  0.74105  Biso   1.000  Hf
  Hf69     1.0000 0.77185  0.62968  0.24208  Biso   1.000  Hf
  Hf70     1.0000 0.76879  0.63046  0.73961  Biso   1.000  Hf
  Hf71     1.0000 0.26987  0.12103  0.49754  Biso   1.000  Hf
  Hf72     1.0000 0.25966  0.11462  0.97275  Biso   1.000  Hf
  Hf73     1.0000 0.26923  0.62233  0.49184  Biso   1.000  Hf
  Hf74     1.0000 0.26975  0.61855  0.99239  Biso   1.000  Hf
  Hf75     1.0000 0.76390  0.12368  0.49529  Biso   1.000  Hf
  Hf76     1.0000 0.78004  0.11894  0.98904  Biso   1.000  Hf
  Hf77     1.0000 0.76976  0.62172  0.49179  Biso   1.000  Hf
  Hf78     1.0000 0.76770  0.62111  0.98946  Biso   1.000  Hf
  Hf79     1.0000 0.20744  0.38618  0.00101  Biso   1.000  Hf
  Hf80     1.0000 0.21793  0.37985  0.51246  Biso   1.000  Hf
  Hf81     1.0000 0.23130  0.86265  0.99823  Biso   1.000  Hf
  Hf82     1.0000 0.21736  0.87955  0.51150  Biso   1.000  Hf
  Hf83     1.0000 0.72426  0.38190  0.00726  Biso   1.000  Hf
  Hf84     1.0000 0.71604  0.38021  0.50989  Biso   1.000  Hf
  Hf85     1.0000 0.72734  0.87622  0.00863  Biso   1.000  Hf
  Hf86     1.0000 0.71725  0.87930  0.51544  Biso   1.000  Hf
  Hf87     1.0000 0.20918  0.37722  0.27019  Biso   1.000  Hf
  Hf88     1.0000 0.21774  0.37244  0.75706  Biso   1.000  Hf
  Hf89     1.0000 0.23369  0.85697  0.26429  Biso   1.000  Hf
  Hf90     1.0000 0.21628  0.87078  0.75812  Biso   1.000  Hf
  Hf91     1.0000 0.71942  0.37239  0.26067  Biso   1.000  Hf
  Hf92     1.0000 0.71955  0.37331  0.75714  Biso   1.000  Hf
  Hf93     1.0000 0.70484  0.86942  0.26844  Biso   1.000  Hf
  Hf94     1.0000 0.71907  0.87199  0.76114  Biso   1.000  Hf
