data_image0
_cell_length_a       10.2089
_cell_length_b       10.353
_cell_length_c       10.4955
_cell_angle_alpha    90
_cell_angle_beta     80
_cell_angle_gamma    90

_symmetry_space_group_name_H-M    "P 1"
_symmetry_int_tables_number       1

loop_
  _symmetry_equiv_pos_as_xyz
  'x, y, z'

loop_
  _atom_site_label
  _atom_site_occupancy
  _atom_site_fract_x
  _atom_site_fract_y
  _atom_site_fract_z
  _atom_site_thermal_displace_type
  _atom_site_B_iso_or_equiv
  _atom_site_type_symbol
  La1      1.0000 0.13263  0.01307  0.14261  Biso   1.000  La
  Hf1      1.0000 0.12719  0.01619  0.64834  Biso   1.000  Hf
  Hf2      1.0000 0.13859  0.51994  0.14517  Biso   1.000  Hf
  Hf3      1.0000 0.13455  0.51876  0.64706  Biso   1.000  Hf
  Hf4      1.0000 0.63626  0.02095  0.14663  Biso   1.000  Hf
  Hf5      1.0000 0.63718  0.01478  0.65040  Biso   1.000  Hf
  Hf6      1.0000 0.63674  0.51955  0.14576  Biso   1.000  Hf
  Hf7      1.0000 0.63507  0.52295  0.64712  Biso   1.000  Hf
  Hf8      1.0000 0.13531  0.22904  0.39837  Biso   1.000  Hf
  Hf9      1.0000 0.12702  0.23154  0.89761  Biso   1.000  Hf
  Hf10     1.0000 0.13906  0.72476  0.39818  Biso   1.000  Hf
  Hf11     1.0000 0.13176  0.72630  0.89617  Biso   1.000  Hf
  Hf12     1.0000 0.64231  0.23052  0.38856  Biso   1.000  Hf
  Hf13     1.0000 0.62981  0.22821  0.89648  Biso   1.000  Hf
  Hf14     1.0000 0.63251  0.72629  0.39710  Biso   1.000  Hf
  Hf15     1.0000 0.63381  0.72859  0.89715  Biso   1.000  Hf
  Hf16     1.0000 0.35907  0.26973  0.10423  Biso   1.000  Hf
  La2      1.0000 0.36308  0.26047  0.61025  Biso   1.000  La
  Hf17     1.0000 0.36635  0.76744  0.10401  Biso   1.000  Hf
  Hf18     1.0000 0.35523  0.77021  0.60636  Biso   1.000  Hf
  Hf19     1.0000 0.85805  0.27464  0.10111  Biso   1.000  Hf
  Hf20     1.0000 0.85485  0.27157  0.60518  Biso   1.000  Hf
  Hf21     1.0000 0.85645  0.76500  0.10404  Biso   1.000  Hf
  Hf22     1.0000 0.85860  0.76802  0.60385  Biso   1.000  Hf
  Hf23     1.0000 0.35679  0.47644  0.35204  Biso   1.000  Hf
  Hf24     1.0000 0.35554  0.48123  0.85736  Biso   1.000  Hf
  Hf25     1.0000 0.35972  0.97647  0.35541  Biso   1.000  Hf
  Hf26     1.0000 0.35469  0.97673  0.85465  Biso   1.000  Hf
  Hf27     1.0000 0.86011  0.48012  0.35409  Biso   1.000  Hf
  Hf28     1.0000 0.85202  0.47911  0.85288  Biso   1.000  Hf
  Hf29     1.0000 0.85253  0.97416  0.35902  Biso   1.000  Hf
  Hf30     1.0000 0.85270  0.97782  0.85875  Biso   1.000  Hf
  Hf31     1.0000 0.03256  0.18815  0.07612  Biso   1.000  Hf
  Hf32     1.0000 0.02933  0.17201  0.58707  Biso   1.000  Hf
  Hf33     1.0000 0.03633  0.67119  0.08066  Biso   1.000  Hf
  Hf34     1.0000 0.03101  0.66583  0.58074  Biso   1.000  Hf
  Hf35     1.0000 0.53521  0.16934  0.07907  Biso   1.000  Hf
  Hf36     1.0000 0.56453  0.17097  0.57531  Biso   1.000  Hf
  Hf37     1.0000 0.53964  0.67001  0.08099  Biso   1.000  Hf
  Hf38     1.0000 0.53361  0.67337  0.58333  Biso   1.000  Hf
  Hf39     1.0000 0.01890  0.08501  0.34537  Biso   1.000  Hf
  Hf40     1.0000 0.01894  0.08222  0.83536  Biso   1.000  Hf
  Hf41     1.0000 0.03356  0.58142  0.32980  Biso   1.000  Hf
  Hf42     1.0000 0.02522  0.58231  0.82981  Biso   1.000  Hf
  Hf43     1.0000 0.53320  0.08063  0.33231  Biso   1.000  Hf
  Hf44     1.0000 0.52646  0.08250  0.82787  Biso   1.000  Hf
  Hf45     1.0000 0.53080  0.58204  0.32871  Biso   1.000  Hf
  Hf46     1.0000 0.53218  0.58168  0.83662  Biso   1.000  Hf
  Hf47     1.0000 0.46236  0.42055  0.16550  Biso   1.000  Hf
  Hf48     1.0000 0.45963  0.43873  0.67432  Biso   1.000  Hf
  Hf49     1.0000 0.46350  0.92108  0.16812  Biso   1.000  Hf
  Hf50     1.0000 0.45825  0.92276  0.66942  Biso   1.000  Hf
  Hf51     1.0000 0.96090  0.42364  0.16835  Biso   1.000  Hf
  Hf52     1.0000 0.95786  0.41980  0.66935  Biso   1.000  Hf
  Hf53     1.0000 0.93635  0.91676  0.17705  Biso   1.000  Hf
  Hf54     1.0000 0.95604  0.91586  0.67381  Biso   1.000  Hf
  Hf55     1.0000 0.47117  0.33258  0.40395  Biso   1.000  Hf
  Hf56     1.0000 0.45639  0.33026  0.91821  Biso   1.000  Hf
  Hf57     1.0000 0.46106  0.83087  0.42371  Biso   1.000  Hf
  Hf58     1.0000 0.46561  0.83288  0.92126  Biso   1.000  Hf
  Hf59     1.0000 0.96020  0.33253  0.42123  Biso   1.000  Hf
  Hf60     1.0000 0.95085  0.33265  0.91676  Biso   1.000  Hf
  Hf61     1.0000 0.96429  0.83088  0.42107  Biso   1.000  Hf
  Hf62     1.0000 0.95872  0.83255  0.92489  Biso   1.000  Hf
  Hf63     1.0000 0.28006  0.13595  0.24957  Biso   1.000  Hf
  Hf64     1.0000 0.25175  0.11407  0.75375  Biso   1.000  Hf
  Hf65     1.0000 0.27544  0.62362  0.23950  Biso   1.000  Hf
  Hf66     1.0000 0.26862  0.62896  0.74281  Biso   1.000  Hf
  Hf67     1.0000 0.77274  0.13027  0.23902  Biso   1.000  Hf
  Hf68     1.0000 0.76891  0.12749  0.74266  Biso   1.000  Hf
  Hf69     1.0000 0.77235  0.62792  0.24115  Biso   1.000  Hf
  Hf70     1.0000 0.77127  0.62959  0.74045  Biso   1.000  Hf
  Hf71     1.0000 0.25752  0.10669  0.48994  Biso   1.000  Hf
  Hf72     1.0000 0.27541  0.12700  0.98466  Biso   1.000  Hf
  Hf73     1.0000 0.27470  0.61968  0.49235  Biso   1.000  Hf
  Hf74     1.0000 0.26729  0.61848  0.99307  Biso   1.000  Hf
  Hf75     1.0000 0.78071  0.12087  0.48847  Biso   1.000  Hf
  Hf76     1.0000 0.76367  0.12019  0.99249  Biso   1.000  Hf
  Hf77     1.0000 0.77286  0.62222  0.48958  Biso   1.000  Hf
  Hf78     1.0000 0.76726  0.61839  0.99151  Biso   1.000  Hf
  Hf79     1.0000 0.22566  0.37984  0.01015  Biso   1.000  Hf
  Hf80     1.0000 0.21401  0.38339  0.50239  Biso   1.000  Hf
  Hf81     1.0000 0.23071  0.86454  0.99874  Biso   1.000  Hf
  Hf82     1.0000 0.21864  0.87250  0.51365  Biso   1.000  Hf
  Hf83     1.0000 0.72111  0.38021  0.00719  Biso   1.000  Hf
  Hf84     1.0000 0.72142  0.38154  0.50770  Biso   1.000  Hf
  Hf85     1.0000 0.72590  0.87841  0.01086  Biso   1.000  Hf
  Hf86     1.0000 0.72135  0.87721  0.51198  Biso   1.000  Hf
  Hf87     1.0000 0.21986  0.37087  0.25711  Biso   1.000  Hf
  Hf88     1.0000 0.20965  0.37816  0.76986  Biso   1.000  Hf
  Hf89     1.0000 0.23541  0.85790  0.26564  Biso   1.000  Hf
  Hf90     1.0000 0.21731  0.86693  0.75917  Biso   1.000  Hf
  Hf91     1.0000 0.72456  0.37369  0.25694  Biso   1.000  Hf
  Hf92     1.0000 0.71705  0.37012  0.75888  Biso   1.000  Hf
  Hf93     1.0000 0.71007  0.86885  0.26444  Biso   1.000  Hf
  Hf94     1.0000 0.71957  0.86886  0.76170  Biso   1.000  Hf
