data_image0
_cell_length_a       10.2167
_cell_length_b       10.3403
_cell_length_c       10.4736
_cell_angle_alpha    90
_cell_angle_beta     80
_cell_angle_gamma    90

_symmetry_space_group_name_H-M    "P 1"
_symmetry_int_tables_number       1

loop_
  _symmetry_equiv_pos_as_xyz
  'x, y, z'

loop_
  _atom_site_label
  _atom_site_occupancy
  _atom_site_fract_x
  _atom_site_fract_y
  _atom_site_fract_z
  _atom_site_thermal_displace_type
  _atom_site_B_iso_or_equiv
  _atom_site_type_symbol
  La1      1.0000 0.12980  0.01035  0.14073  Biso   1.000  La
  Hf1      1.0000 0.13172  0.02074  0.64589  Biso   1.000  Hf
  Hf2      1.0000 0.13490  0.52060  0.14484  Biso   1.000  Hf
  La2      1.0000 0.12060  0.51043  0.64171  Biso   1.000  La
  Hf3      1.0000 0.63934  0.01978  0.14648  Biso   1.000  Hf
  Hf4      1.0000 0.63115  0.01960  0.64935  Biso   1.000  Hf
  Hf5      1.0000 0.63434  0.51947  0.14832  Biso   1.000  Hf
  Hf6      1.0000 0.63018  0.51990  0.64747  Biso   1.000  Hf
  Hf7      1.0000 0.13504  0.22726  0.39600  Biso   1.000  Hf
  Hf8      1.0000 0.12644  0.23066  0.89635  Biso   1.000  Hf
  Hf9      1.0000 0.12966  0.73051  0.39532  Biso   1.000  Hf
  Hf10     1.0000 0.12586  0.72735  0.89699  Biso   1.000  Hf
  Hf11     1.0000 0.63444  0.23043  0.39572  Biso   1.000  Hf
  Hf12     1.0000 0.62482  0.22677  0.89996  Biso   1.000  Hf
  Hf13     1.0000 0.62802  0.72662  0.39888  Biso   1.000  Hf
  Hf14     1.0000 0.62529  0.73053  0.89671  Biso   1.000  Hf
  Hf15     1.0000 0.35661  0.26895  0.10393  Biso   1.000  Hf
  Hf16     1.0000 0.35777  0.26662  0.60388  Biso   1.000  Hf
  Hf17     1.0000 0.36096  0.76651  0.10282  Biso   1.000  Hf
  Hf18     1.0000 0.34746  0.76906  0.60493  Biso   1.000  Hf
  Hf19     1.0000 0.85817  0.27396  0.10302  Biso   1.000  Hf
  Hf20     1.0000 0.84931  0.26707  0.60583  Biso   1.000  Hf
  Hf21     1.0000 0.85249  0.76698  0.10477  Biso   1.000  Hf
  Hf22     1.0000 0.84903  0.77411  0.60402  Biso   1.000  Hf
  Hf23     1.0000 0.35507  0.47734  0.35075  Biso   1.000  Hf
  Hf24     1.0000 0.35031  0.47863  0.85614  Biso   1.000  Hf
  Hf25     1.0000 0.35352  0.97846  0.35514  Biso   1.000  Hf
  Hf26     1.0000 0.34591  0.97746  0.85176  Biso   1.000  Hf
  Hf27     1.0000 0.85569  0.47916  0.35666  Biso   1.000  Hf
  Hf28     1.0000 0.83891  0.48004  0.86050  Biso   1.000  Hf
  Hf29     1.0000 0.84212  0.97989  0.35947  Biso   1.000  Hf
  Hf30     1.0000 0.84651  0.97928  0.85767  Biso   1.000  Hf
  Hf31     1.0000 0.03465  0.19235  0.07840  Biso   1.000  Hf
  Hf32     1.0000 0.03239  0.18141  0.59045  Biso   1.000  Hf
  Hf33     1.0000 0.03555  0.68122  0.08936  Biso   1.000  Hf
  Hf34     1.0000 0.02548  0.69244  0.57938  Biso   1.000  Hf
  Hf35     1.0000 0.53255  0.16555  0.08054  Biso   1.000  Hf
  Hf36     1.0000 0.52887  0.16523  0.57990  Biso   1.000  Hf
  Hf37     1.0000 0.53204  0.66506  0.07884  Biso   1.000  Hf
  Hf38     1.0000 0.52342  0.66564  0.58152  Biso   1.000  Hf
  Hf39     1.0000 0.02005  0.08159  0.34868  Biso   1.000  Hf
  Hf40     1.0000 0.02833  0.07754  0.83622  Biso   1.000  Hf
  Hf41     1.0000 0.03151  0.57745  0.33514  Biso   1.000  Hf
  Hf42     1.0000 0.01091  0.58167  0.84964  Biso   1.000  Hf
  Hf43     1.0000 0.53303  0.08097  0.33096  Biso   1.000  Hf
  Hf44     1.0000 0.52484  0.08188  0.82955  Biso   1.000  Hf
  Hf45     1.0000 0.52799  0.58175  0.32851  Biso   1.000  Hf
  Hf46     1.0000 0.52386  0.58112  0.83192  Biso   1.000  Hf
  Hf47     1.0000 0.46211  0.41455  0.17124  Biso   1.000  Hf
  Hf48     1.0000 0.45696  0.41793  0.67039  Biso   1.000  Hf
  Hf49     1.0000 0.46015  0.91781  0.16934  Biso   1.000  Hf
  Hf50     1.0000 0.45297  0.91467  0.67224  Biso   1.000  Hf
  Hf51     1.0000 0.95529  0.42792  0.16791  Biso   1.000  Hf
  Hf52     1.0000 0.91559  0.43099  0.67022  Biso   1.000  Hf
  Hf53     1.0000 0.91884  0.93082  0.16919  Biso   1.000  Hf
  Hf54     1.0000 0.94616  0.92805  0.66891  Biso   1.000  Hf
  Hf55     1.0000 0.46703  0.33491  0.42047  Biso   1.000  Hf
  Hf56     1.0000 0.45387  0.33313  0.92504  Biso   1.000  Hf
  Hf57     1.0000 0.45705  0.83296  0.42400  Biso   1.000  Hf
  Hf58     1.0000 0.45785  0.83498  0.92147  Biso   1.000  Hf
  Hf59     1.0000 0.95954  0.33220  0.42246  Biso   1.000  Hf
  Hf60     1.0000 0.94792  0.33125  0.91180  Biso   1.000  Hf
  Hf61     1.0000 0.95114  0.83112  0.41078  Biso   1.000  Hf
  Hf62     1.0000 0.95033  0.83225  0.92344  Biso   1.000  Hf
  Hf63     1.0000 0.27883  0.13392  0.24847  Biso   1.000  Hf
  Hf64     1.0000 0.26811  0.12344  0.73771  Biso   1.000  Hf
  Hf65     1.0000 0.27129  0.62329  0.23664  Biso   1.000  Hf
  Hf66     1.0000 0.26967  0.63402  0.74941  Biso   1.000  Hf
  Hf67     1.0000 0.77039  0.13356  0.24232  Biso   1.000  Hf
  Hf68     1.0000 0.76601  0.12906  0.74436  Biso   1.000  Hf
  Hf69     1.0000 0.76919  0.62891  0.24327  Biso   1.000  Hf
  Hf70     1.0000 0.76121  0.63369  0.74327  Biso   1.000  Hf
  Hf71     1.0000 0.26875  0.11706  0.49268  Biso   1.000  Hf
  Hf72     1.0000 0.27110  0.12696  0.98154  Biso   1.000  Hf
  Hf73     1.0000 0.27427  0.62678  0.48054  Biso   1.000  Hf
  Hf74     1.0000 0.25963  0.61722  0.99367  Biso   1.000  Hf
  Hf75     1.0000 0.76597  0.12105  0.49455  Biso   1.000  Hf
  Hf76     1.0000 0.76329  0.12105  0.99343  Biso   1.000  Hf
  Hf77     1.0000 0.76645  0.62091  0.49240  Biso   1.000  Hf
  Hf78     1.0000 0.75683  0.62117  0.99552  Biso   1.000  Hf
  Hf79     1.0000 0.22344  0.38011  0.00849  Biso   1.000  Hf
  Hf80     1.0000 0.23338  0.36556  0.49554  Biso   1.000  Hf
  Hf81     1.0000 0.22418  0.86572  0.99652  Biso   1.000  Hf
  Hf82     1.0000 0.21429  0.88023  0.50951  Biso   1.000  Hf
  Hf83     1.0000 0.72001  0.37906  0.01123  Biso   1.000  Hf
  Hf84     1.0000 0.71677  0.37788  0.51008  Biso   1.000  Hf
  Hf85     1.0000 0.71990  0.87775  0.00904  Biso   1.000  Hf
  Hf86     1.0000 0.71086  0.87919  0.51220  Biso   1.000  Hf
  Hf87     1.0000 0.21607  0.37100  0.25548  Biso   1.000  Hf
  Hf88     1.0000 0.22686  0.36003  0.76367  Biso   1.000  Hf
  Hf89     1.0000 0.23005  0.85990  0.26266  Biso   1.000  Hf
  Hf90     1.0000 0.20691  0.87110  0.75650  Biso   1.000  Hf
  Hf91     1.0000 0.72040  0.37302  0.26088  Biso   1.000  Hf
  Hf92     1.0000 0.69916  0.36865  0.76574  Biso   1.000  Hf
  Hf93     1.0000 0.70233  0.86851  0.26467  Biso   1.000  Hf
  Hf94     1.0000 0.71123  0.87313  0.76185  Biso   1.000  Hf
