data_image0
_cell_length_a       10.2195
_cell_length_b       10.3451
_cell_length_c       10.4958
_cell_angle_alpha    90
_cell_angle_beta     80
_cell_angle_gamma    90

_symmetry_space_group_name_H-M    "P 1"
_symmetry_int_tables_number       1

loop_
  _symmetry_equiv_pos_as_xyz
  'x, y, z'

loop_
  _atom_site_label
  _atom_site_occupancy
  _atom_site_fract_x
  _atom_site_fract_y
  _atom_site_fract_z
  _atom_site_thermal_displace_type
  _atom_site_B_iso_or_equiv
  _atom_site_type_symbol
  La1      1.0000 0.13345  0.01280  0.14322  Biso   1.000  La
  Hf1      1.0000 0.13426  0.02042  0.64765  Biso   1.000  Hf
  Hf2      1.0000 0.13484  0.52021  0.14404  Biso   1.000  Hf
  Hf3      1.0000 0.12949  0.51875  0.64739  Biso   1.000  Hf
  Hf4      1.0000 0.63913  0.02045  0.14685  Biso   1.000  Hf
  La2      1.0000 0.62859  0.01281  0.64401  Biso   1.000  La
  Hf5      1.0000 0.63437  0.51876  0.14657  Biso   1.000  Hf
  Hf6      1.0000 0.62998  0.52019  0.64483  Biso   1.000  Hf
  Hf7      1.0000 0.13518  0.22869  0.39891  Biso   1.000  Hf
  Hf8      1.0000 0.12685  0.23346  0.89603  Biso   1.000  Hf
  Hf9      1.0000 0.13507  0.72641  0.39492  Biso   1.000  Hf
  Hf10     1.0000 0.12562  0.72618  0.89696  Biso   1.000  Hf
  Hf11     1.0000 0.63171  0.23349  0.39523  Biso   1.000  Hf
  Hf12     1.0000 0.63031  0.22867  0.89970  Biso   1.000  Hf
  Hf13     1.0000 0.63049  0.72619  0.39615  Biso   1.000  Hf
  Hf14     1.0000 0.63021  0.72640  0.89573  Biso   1.000  Hf
  Hf15     1.0000 0.35830  0.27023  0.10485  Biso   1.000  Hf
  Hf16     1.0000 0.35181  0.27298  0.60364  Biso   1.000  Hf
  Hf17     1.0000 0.36332  0.76738  0.10283  Biso   1.000  Hf
  Hf18     1.0000 0.34604  0.76648  0.60437  Biso   1.000  Hf
  Hf19     1.0000 0.85668  0.27300  0.10283  Biso   1.000  Hf
  Hf20     1.0000 0.85345  0.27022  0.60564  Biso   1.000  Hf
  Hf21     1.0000 0.85090  0.76652  0.10358  Biso   1.000  Hf
  Hf22     1.0000 0.85845  0.76735  0.60361  Biso   1.000  Hf
  Hf23     1.0000 0.35296  0.47819  0.35179  Biso   1.000  Hf
  Hf24     1.0000 0.35143  0.47829  0.85571  Biso   1.000  Hf
  Hf25     1.0000 0.35548  0.97909  0.35662  Biso   1.000  Hf
  Hf26     1.0000 0.34356  0.97877  0.85854  Biso   1.000  Hf
  Hf27     1.0000 0.85629  0.47832  0.35490  Biso   1.000  Hf
  Hf28     1.0000 0.84809  0.47817  0.85259  Biso   1.000  Hf
  Hf29     1.0000 0.84843  0.97881  0.35774  Biso   1.000  Hf
  Hf30     1.0000 0.85061  0.97908  0.85741  Biso   1.000  Hf
  Hf31     1.0000 0.03186  0.18840  0.07633  Biso   1.000  Hf
  Hf32     1.0000 0.03045  0.17206  0.58581  Biso   1.000  Hf
  Hf33     1.0000 0.03163  0.67132  0.08169  Biso   1.000  Hf
  Hf34     1.0000 0.03024  0.66713  0.57990  Biso   1.000  Hf
  Hf35     1.0000 0.53531  0.17206  0.08499  Biso   1.000  Hf
  Hf36     1.0000 0.52698  0.18836  0.57712  Biso   1.000  Hf
  Hf37     1.0000 0.53508  0.66713  0.07910  Biso   1.000  Hf
  Hf38     1.0000 0.52676  0.67124  0.58243  Biso   1.000  Hf
  Hf39     1.0000 0.02295  0.08522  0.34637  Biso   1.000  Hf
  Hf40     1.0000 0.03065  0.07852  0.83537  Biso   1.000  Hf
  Hf41     1.0000 0.02955  0.58213  0.32923  Biso   1.000  Hf
  Hf42     1.0000 0.02213  0.58043  0.82975  Biso   1.000  Hf
  Hf43     1.0000 0.53552  0.07856  0.33456  Biso   1.000  Hf
  Hf44     1.0000 0.51807  0.08524  0.84713  Biso   1.000  Hf
  Hf45     1.0000 0.52699  0.58046  0.32894  Biso   1.000  Hf
  Hf46     1.0000 0.52467  0.58215  0.83001  Biso   1.000  Hf
  Hf47     1.0000 0.46022  0.41915  0.16871  Biso   1.000  Hf
  Hf48     1.0000 0.45263  0.42332  0.66990  Biso   1.000  Hf
  Hf49     1.0000 0.45916  0.92107  0.16863  Biso   1.000  Hf
  Hf50     1.0000 0.42486  0.91863  0.67711  Biso   1.000  Hf
  Hf51     1.0000 0.95748  0.42336  0.16908  Biso   1.000  Hf
  Hf52     1.0000 0.95534  0.41916  0.66950  Biso   1.000  Hf
  Hf53     1.0000 0.92963  0.91880  0.17622  Biso   1.000  Hf
  Hf54     1.0000 0.95428  0.92106  0.66940  Biso   1.000  Hf
  Hf55     1.0000 0.45473  0.33216  0.41490  Biso   1.000  Hf
  Hf56     1.0000 0.45669  0.33529  0.92321  Biso   1.000  Hf
  Hf57     1.0000 0.45872  0.83244  0.42505  Biso   1.000  Hf
  Hf58     1.0000 0.46265  0.83498  0.91942  Biso   1.000  Hf
  Hf59     1.0000 0.96153  0.33527  0.42238  Biso   1.000  Hf
  Hf60     1.0000 0.94988  0.33213  0.91567  Biso   1.000  Hf
  Hf61     1.0000 0.96750  0.83496  0.41854  Biso   1.000  Hf
  Hf62     1.0000 0.95386  0.83240  0.92583  Biso   1.000  Hf
  Hf63     1.0000 0.28155  0.13568  0.25077  Biso   1.000  Hf
  Hf64     1.0000 0.26685  0.13135  0.74140  Biso   1.000  Hf
  Hf65     1.0000 0.27139  0.62402  0.23703  Biso   1.000  Hf
  Hf66     1.0000 0.26382  0.62808  0.74181  Biso   1.000  Hf
  Hf67     1.0000 0.77170  0.13139  0.24061  Biso   1.000  Hf
  Hf68     1.0000 0.77671  0.13565  0.75157  Biso   1.000  Hf
  Hf69     1.0000 0.76869  0.62809  0.24100  Biso   1.000  Hf
  Hf70     1.0000 0.76651  0.62400  0.73783  Biso   1.000  Hf
  Hf71     1.0000 0.26992  0.11968  0.49431  Biso   1.000  Hf
  Hf72     1.0000 0.27082  0.12952  0.98422  Biso   1.000  Hf
  Hf73     1.0000 0.26823  0.61857  0.48969  Biso   1.000  Hf
  Hf74     1.0000 0.26352  0.61764  0.99106  Biso   1.000  Hf
  Hf75     1.0000 0.77569  0.12955  0.48340  Biso   1.000  Hf
  Hf76     1.0000 0.76507  0.11967  0.99511  Biso   1.000  Hf
  Hf77     1.0000 0.76840  0.61767  0.49024  Biso   1.000  Hf
  Hf78     1.0000 0.76336  0.61857  0.99048  Biso   1.000  Hf
  Hf79     1.0000 0.22302  0.37992  0.00820  Biso   1.000  Hf
  Hf80     1.0000 0.21574  0.37975  0.50946  Biso   1.000  Hf
  Hf81     1.0000 0.22627  0.86373  0.99942  Biso   1.000  Hf
  Hf82     1.0000 0.21598  0.87809  0.51076  Biso   1.000  Hf
  Hf83     1.0000 0.72062  0.37977  0.00865  Biso   1.000  Hf
  Hf84     1.0000 0.71815  0.37991  0.50898  Biso   1.000  Hf
  Hf85     1.0000 0.72083  0.87811  0.00995  Biso   1.000  Hf
  Hf86     1.0000 0.73113  0.86375  0.49861  Biso   1.000  Hf
  Hf87     1.0000 0.21684  0.37140  0.25797  Biso   1.000  Hf
  Hf88     1.0000 0.21398  0.37360  0.76055  Biso   1.000  Hf
  Hf89     1.0000 0.23356  0.85859  0.26429  Biso   1.000  Hf
  Hf90     1.0000 0.19874  0.86917  0.76236  Biso   1.000  Hf
  Hf91     1.0000 0.71883  0.37362  0.25974  Biso   1.000  Hf
  Hf92     1.0000 0.71197  0.37136  0.75877  Biso   1.000  Hf
  Hf93     1.0000 0.70362  0.86917  0.26154  Biso   1.000  Hf
  Hf94     1.0000 0.72869  0.85857  0.76509  Biso   1.000  Hf
