data_image0
_cell_length_a       10.0632
_cell_length_b       10.3898
_cell_length_c       10.0693
_cell_angle_alpha    90
_cell_angle_beta     90
_cell_angle_gamma    90

_symmetry_space_group_name_H-M    "P 1"
_symmetry_int_tables_number       1

loop_
  _symmetry_equiv_pos_as_xyz
  'x, y, z'

loop_
  _atom_site_label
  _atom_site_occupancy
  _atom_site_fract_x
  _atom_site_fract_y
  _atom_site_fract_z
  _atom_site_thermal_displace_type
  _atom_site_B_iso_or_equiv
  _atom_site_type_symbol
  Hf1      1.0000 0.10168  0.98709  0.08282  Biso   1.000  Hf
  Hf2      1.0000 0.13116  0.01282  0.62623  Biso   1.000  Hf
  Hf3      1.0000 0.14191  0.51952  0.12726  Biso   1.000  Hf
  Hf4      1.0000 0.13542  0.51255  0.62414  Biso   1.000  Hf
  Hf5      1.0000 0.64196  0.01679  0.13027  Biso   1.000  Hf
  Hf6      1.0000 0.63126  0.01431  0.62383  Biso   1.000  Hf
  Hf7      1.0000 0.63802  0.51771  0.12589  Biso   1.000  Hf
  Hf8      1.0000 0.63286  0.51496  0.62845  Biso   1.000  Hf
  La1      1.0000 0.12038  0.24060  0.36512  Biso   1.000  La
  Hf9      1.0000 0.13475  0.23181  0.87134  Biso   1.000  Hf
  Hf10     1.0000 0.13586  0.73537  0.37537  Biso   1.000  Hf
  Hf11     1.0000 0.13951  0.72490  0.87649  Biso   1.000  Hf
  Hf12     1.0000 0.64215  0.23471  0.37910  Biso   1.000  Hf
  Hf13     1.0000 0.63716  0.22941  0.87533  Biso   1.000  Hf
  Hf14     1.0000 0.63873  0.73028  0.37767  Biso   1.000  Hf
  Hf15     1.0000 0.63598  0.72786  0.87831  Biso   1.000  Hf
  La2      1.0000 0.37514  0.25223  0.12195  Biso   1.000  La
  Hf16     1.0000 0.36797  0.26260  0.61931  Biso   1.000  Hf
  Hf17     1.0000 0.37074  0.77246  0.12726  Biso   1.000  Hf
  Hf18     1.0000 0.36530  0.76060  0.62972  Biso   1.000  Hf
  Hf19     1.0000 0.87109  0.26504  0.12227  Biso   1.000  Hf
  Hf20     1.0000 0.86450  0.26643  0.63181  Biso   1.000  Hf
  Hf21     1.0000 0.86551  0.76445  0.13196  Biso   1.000  Hf
  Hf22     1.0000 0.86914  0.75991  0.62585  Biso   1.000  Hf
  Hf23     1.0000 0.37092  0.48712  0.37553  Biso   1.000  Hf
  Hf24     1.0000 0.36866  0.47940  0.87213  Biso   1.000  Hf
  Hf25     1.0000 0.37732  0.96857  0.38604  Biso   1.000  Hf
  Hf26     1.0000 0.37133  0.98016  0.87301  Biso   1.000  Hf
  Hf27     1.0000 0.86559  0.48325  0.37907  Biso   1.000  Hf
  Hf28     1.0000 0.86906  0.48139  0.87636  Biso   1.000  Hf
  Hf29     1.0000 0.86694  0.97926  0.38390  Biso   1.000  Hf
  Hf30     1.0000 0.85971  0.97683  0.86815  Biso   1.000  Hf
  Hf31     1.0000 0.04904  0.16626  0.15552  Biso   1.000  Hf
  Hf32     1.0000 0.03840  0.18481  0.68636  Biso   1.000  Hf
  Hf33     1.0000 0.03698  0.68068  0.19762  Biso   1.000  Hf
  Hf34     1.0000 0.03606  0.67993  0.70082  Biso   1.000  Hf
  Hf35     1.0000 0.56730  0.18340  0.19989  Biso   1.000  Hf
  Hf36     1.0000 0.53719  0.18083  0.69479  Biso   1.000  Hf
  Hf37     1.0000 0.54209  0.69290  0.19402  Biso   1.000  Hf
  Hf38     1.0000 0.53421  0.68081  0.70140  Biso   1.000  Hf
  Hf39     1.0000 0.02859  0.05229  0.45624  Biso   1.000  Hf
  Hf40     1.0000 0.02796  0.06223  0.91267  Biso   1.000  Hf
  Hf41     1.0000 0.03990  0.56368  0.44511  Biso   1.000  Hf
  Hf42     1.0000 0.03489  0.56780  0.94881  Biso   1.000  Hf
  Hf43     1.0000 0.54275  0.06224  0.44240  Biso   1.000  Hf
  Hf44     1.0000 0.53054  0.06927  0.95481  Biso   1.000  Hf
  Hf45     1.0000 0.53811  0.57040  0.44986  Biso   1.000  Hf
  Hf46     1.0000 0.53960  0.56301  0.94672  Biso   1.000  Hf
  Hf47     1.0000 0.48068  0.44356  0.20519  Biso   1.000  Hf
  Hf48     1.0000 0.46419  0.43132  0.68922  Biso   1.000  Hf
  Hf49     1.0000 0.46213  0.94840  0.19769  Biso   1.000  Hf
  Hf50     1.0000 0.46614  0.93101  0.69197  Biso   1.000  Hf
  Hf51     1.0000 0.97857  0.42005  0.20420  Biso   1.000  Hf
  Hf52     1.0000 0.96649  0.43310  0.69907  Biso   1.000  Hf
  Hf53     1.0000 0.96124  0.92635  0.20649  Biso   1.000  Hf
  Hf54     1.0000 0.96548  0.92555  0.69503  Biso   1.000  Hf
  Hf55     1.0000 0.46652  0.31238  0.43783  Biso   1.000  Hf
  Hf56     1.0000 0.47105  0.31914  0.92863  Biso   1.000  Hf
  Hf57     1.0000 0.46884  0.81221  0.45059  Biso   1.000  Hf
  Hf58     1.0000 0.47328  0.81784  0.94784  Biso   1.000  Hf
  Hf59     1.0000 0.94808  0.32248  0.45913  Biso   1.000  Hf
  Hf60     1.0000 0.96343  0.31227  0.93925  Biso   1.000  Hf
  Hf61     1.0000 0.96312  0.80719  0.44627  Biso   1.000  Hf
  Hf62     1.0000 0.98720  0.83131  0.96943  Biso   1.000  Hf
  Hf63     1.0000 0.27211  0.11551  0.74342  Biso   1.000  Hf
  Hf64     1.0000 0.27724  0.63183  0.25058  Biso   1.000  Hf
  Hf65     1.0000 0.27002  0.61332  0.74943  Biso   1.000  Hf
  Hf66     1.0000 0.79086  0.11782  0.25329  Biso   1.000  Hf
  Hf67     1.0000 0.76729  0.11332  0.75076  Biso   1.000  Hf
  Hf68     1.0000 0.77288  0.61831  0.25082  Biso   1.000  Hf
  Hf69     1.0000 0.77094  0.61421  0.75023  Biso   1.000  Hf
  Hf70     1.0000 0.28300  0.11961  0.48736  Biso   1.000  Hf
  Hf71     1.0000 0.25457  0.10817  0.99248  Biso   1.000  Hf
  Hf72     1.0000 0.27007  0.63419  0.50019  Biso   1.000  Hf
  Hf73     1.0000 0.27590  0.63164  0.00036  Biso   1.000  Hf
  Hf74     1.0000 0.77025  0.13045  0.50542  Biso   1.000  Hf
  Hf75     1.0000 0.77220  0.12422  0.99987  Biso   1.000  Hf
  Hf76     1.0000 0.77263  0.62837  0.50055  Biso   1.000  Hf
  Hf77     1.0000 0.77712  0.63075  0.99896  Biso   1.000  Hf
  Hf78     1.0000 0.24363  0.38904  0.50449  Biso   1.000  Hf
  Hf79     1.0000 0.22605  0.38208  0.98952  Biso   1.000  Hf
  Hf80     1.0000 0.23162  0.87563  0.50239  Biso   1.000  Hf
  Hf81     1.0000 0.24139  0.86779  0.99353  Biso   1.000  Hf
  Hf82     1.0000 0.72390  0.38335  0.50385  Biso   1.000  Hf
  Hf83     1.0000 0.73367  0.38129  0.00311  Biso   1.000  Hf
  Hf84     1.0000 0.73038  0.87644  0.50269  Biso   1.000  Hf
  Hf85     1.0000 0.73648  0.87914  0.00058  Biso   1.000  Hf
  Hf86     1.0000 0.23967  0.39166  0.24638  Biso   1.000  Hf
  Hf87     1.0000 0.23232  0.36250  0.74577  Biso   1.000  Hf
  Hf88     1.0000 0.23116  0.88386  0.24871  Biso   1.000  Hf
  Hf89     1.0000 0.23252  0.86318  0.75053  Biso   1.000  Hf
  Hf90     1.0000 0.74091  0.36864  0.25254  Biso   1.000  Hf
  Hf91     1.0000 0.72990  0.36633  0.75371  Biso   1.000  Hf
  Hf92     1.0000 0.72837  0.86848  0.25246  Biso   1.000  Hf
  Hf93     1.0000 0.73111  0.86184  0.74975  Biso   1.000  Hf
