data_image0
_cell_length_a       10.0474
_cell_length_b       10.4047
_cell_length_c       10.1133
_cell_angle_alpha    90
_cell_angle_beta     90
_cell_angle_gamma    90

_symmetry_space_group_name_H-M    "P 1"
_symmetry_int_tables_number       1

loop_
  _symmetry_equiv_pos_as_xyz
  'x, y, z'

loop_
  _atom_site_label
  _atom_site_occupancy
  _atom_site_fract_x
  _atom_site_fract_y
  _atom_site_fract_z
  _atom_site_thermal_displace_type
  _atom_site_B_iso_or_equiv
  _atom_site_type_symbol
  La1      1.0000 0.12131  0.00761  0.11767  Biso   1.000  La
  Hf1      1.0000 0.12639  0.01636  0.62575  Biso   1.000  Hf
  Hf2      1.0000 0.13446  0.51207  0.11840  Biso   1.000  Hf
  Hf3      1.0000 0.12896  0.51587  0.62712  Biso   1.000  Hf
  Hf4      1.0000 0.63508  0.01754  0.12390  Biso   1.000  Hf
  Hf5      1.0000 0.62421  0.01817  0.62784  Biso   1.000  Hf
  Hf6      1.0000 0.63219  0.51491  0.12568  Biso   1.000  Hf
  Hf7      1.0000 0.62559  0.51514  0.62430  Biso   1.000  Hf
  Hf8      1.0000 0.13107  0.23442  0.37625  Biso   1.000  Hf
  Hf9      1.0000 0.12680  0.23634  0.86913  Biso   1.000  Hf
  La2      1.0000 0.11779  0.74212  0.36889  Biso   1.000  La
  Hf10     1.0000 0.12757  0.73244  0.87462  Biso   1.000  Hf
  Hf11     1.0000 0.62774  0.23416  0.37438  Biso   1.000  Hf
  Hf12     1.0000 0.62542  0.23422  0.87526  Biso   1.000  Hf
  Hf13     1.0000 0.62837  0.73291  0.37790  Biso   1.000  Hf
  Hf14     1.0000 0.62598  0.73026  0.87473  Biso   1.000  Hf
  Hf15     1.0000 0.36422  0.26563  0.12532  Biso   1.000  Hf
  Hf16     1.0000 0.35892  0.26592  0.62304  Biso   1.000  Hf
  Hf17     1.0000 0.37276  0.76156  0.12028  Biso   1.000  Hf
  Hf18     1.0000 0.35916  0.76577  0.62311  Biso   1.000  Hf
  Hf19     1.0000 0.86132  0.26938  0.12670  Biso   1.000  Hf
  Hf20     1.0000 0.85919  0.26661  0.62523  Biso   1.000  Hf
  Hf21     1.0000 0.85784  0.76471  0.12516  Biso   1.000  Hf
  Hf22     1.0000 0.85465  0.76484  0.63379  Biso   1.000  Hf
  Hf23     1.0000 0.35948  0.48386  0.37510  Biso   1.000  Hf
  Hf24     1.0000 0.35903  0.48272  0.87385  Biso   1.000  Hf
  Hf25     1.0000 0.36550  0.98691  0.37334  Biso   1.000  Hf
  Hf26     1.0000 0.36130  0.98384  0.87129  Biso   1.000  Hf
  Hf27     1.0000 0.85739  0.48181  0.37808  Biso   1.000  Hf
  Hf28     1.0000 0.85847  0.48075  0.87465  Biso   1.000  Hf
  Hf29     1.0000 0.85244  0.98225  0.38462  Biso   1.000  Hf
  Hf30     1.0000 0.85518  0.98370  0.87213  Biso   1.000  Hf
  Hf31     1.0000 0.02486  0.19447  0.20434  Biso   1.000  Hf
  Hf32     1.0000 0.03176  0.18789  0.68466  Biso   1.000  Hf
  Hf33     1.0000 0.02893  0.67268  0.16486  Biso   1.000  Hf
  Hf34     1.0000 0.02688  0.68314  0.69543  Biso   1.000  Hf
  Hf35     1.0000 0.53564  0.18352  0.19325  Biso   1.000  Hf
  Hf36     1.0000 0.52617  0.18395  0.69704  Biso   1.000  Hf
  Hf37     1.0000 0.53842  0.68117  0.19512  Biso   1.000  Hf
  Hf38     1.0000 0.52805  0.68208  0.69598  Biso   1.000  Hf
  Hf39     1.0000 0.02913  0.06394  0.44332  Biso   1.000  Hf
  Hf40     1.0000 0.02140  0.07651  0.91661  Biso   1.000  Hf
  Hf41     1.0000 0.02145  0.55430  0.45670  Biso   1.000  Hf
  Hf42     1.0000 0.02983  0.56343  0.93320  Biso   1.000  Hf
  Hf43     1.0000 0.53061  0.06920  0.44754  Biso   1.000  Hf
  Hf44     1.0000 0.52963  0.06624  0.94292  Biso   1.000  Hf
  Hf45     1.0000 0.53162  0.56435  0.44286  Biso   1.000  Hf
  Hf46     1.0000 0.52484  0.56691  0.94793  Biso   1.000  Hf
  Hf47     1.0000 0.46556  0.43054  0.19588  Biso   1.000  Hf
  Hf48     1.0000 0.45842  0.43306  0.69527  Biso   1.000  Hf
  Hf49     1.0000 0.47300  0.93253  0.19526  Biso   1.000  Hf
  Hf50     1.0000 0.45998  0.93199  0.69660  Biso   1.000  Hf
  Hf51     1.0000 0.96261  0.43512  0.19898  Biso   1.000  Hf
  Hf52     1.0000 0.95905  0.43022  0.69870  Biso   1.000  Hf
  Hf53     1.0000 0.95691  0.90668  0.22770  Biso   1.000  Hf
  Hf54     1.0000 0.95637  0.93306  0.69852  Biso   1.000  Hf
  Hf55     1.0000 0.46013  0.31674  0.44571  Biso   1.000  Hf
  Hf56     1.0000 0.45968  0.31821  0.94550  Biso   1.000  Hf
  Hf57     1.0000 0.46147  0.81508  0.44627  Biso   1.000  Hf
  Hf58     1.0000 0.46578  0.81854  0.94588  Biso   1.000  Hf
  Hf59     1.0000 0.95722  0.31413  0.44601  Biso   1.000  Hf
  Hf60     1.0000 0.95943  0.31890  0.95117  Biso   1.000  Hf
  Hf61     1.0000 0.93852  0.82306  0.46629  Biso   1.000  Hf
  Hf62     1.0000 0.96432  0.82680  0.95587  Biso   1.000  Hf
  Hf63     1.0000 0.27718  0.12730  0.25400  Biso   1.000  Hf
  Hf64     1.0000 0.26318  0.11660  0.74519  Biso   1.000  Hf
  Hf65     1.0000 0.27307  0.60870  0.23903  Biso   1.000  Hf
  Hf66     1.0000 0.26276  0.61836  0.75046  Biso   1.000  Hf
  Hf67     1.0000 0.76741  0.11683  0.24950  Biso   1.000  Hf
  Hf68     1.0000 0.76197  0.11819  0.74820  Biso   1.000  Hf
  Hf69     1.0000 0.76972  0.61710  0.25043  Biso   1.000  Hf
  Hf70     1.0000 0.76034  0.61334  0.75020  Biso   1.000  Hf
  Hf71     1.0000 0.26316  0.13521  0.49928  Biso   1.000  Hf
  Hf72     1.0000 0.26678  0.13718  0.98889  Biso   1.000  Hf
  Hf73     1.0000 0.27331  0.62323  0.50491  Biso   1.000  Hf
  Hf74     1.0000 0.26243  0.62841  0.99588  Biso   1.000  Hf
  Hf75     1.0000 0.76133  0.13420  0.50077  Biso   1.000  Hf
  Hf76     1.0000 0.76321  0.13280  0.99884  Biso   1.000  Hf
  Hf77     1.0000 0.76155  0.63238  0.50197  Biso   1.000  Hf
  Hf78     1.0000 0.76099  0.62922  0.99726  Biso   1.000  Hf
  Hf79     1.0000 0.22299  0.38178  0.49777  Biso   1.000  Hf
  Hf80     1.0000 0.22395  0.38107  0.99529  Biso   1.000  Hf
  Hf81     1.0000 0.23763  0.89523  0.50430  Biso   1.000  Hf
  Hf82     1.0000 0.23626  0.87133  0.98673  Biso   1.000  Hf
  Hf83     1.0000 0.72313  0.38165  0.49984  Biso   1.000  Hf
  Hf84     1.0000 0.72063  0.38244  0.99889  Biso   1.000  Hf
  Hf85     1.0000 0.71235  0.88229  0.50501  Biso   1.000  Hf
  Hf86     1.0000 0.73444  0.88213  0.00175  Biso   1.000  Hf
  Hf87     1.0000 0.22627  0.36695  0.24724  Biso   1.000  Hf
  Hf88     1.0000 0.22544  0.36779  0.74602  Biso   1.000  Hf
  Hf89     1.0000 0.25553  0.86521  0.24500  Biso   1.000  Hf
  Hf90     1.0000 0.22170  0.86610  0.74536  Biso   1.000  Hf
  Hf91     1.0000 0.72603  0.36735  0.24964  Biso   1.000  Hf
  Hf92     1.0000 0.72294  0.36600  0.74915  Biso   1.000  Hf
  Hf93     1.0000 0.72009  0.86874  0.25293  Biso   1.000  Hf
  Hf94     1.0000 0.72105  0.86734  0.75375  Biso   1.000  Hf
