data_image0
_cell_length_a       10.0539
_cell_length_b       10.4092
_cell_length_c       10.087
_cell_angle_alpha    90
_cell_angle_beta     90
_cell_angle_gamma    90

_symmetry_space_group_name_H-M    "P 1"
_symmetry_int_tables_number       1

loop_
  _symmetry_equiv_pos_as_xyz
  'x, y, z'

loop_
  _atom_site_label
  _atom_site_occupancy
  _atom_site_fract_x
  _atom_site_fract_y
  _atom_site_fract_z
  _atom_site_thermal_displace_type
  _atom_site_B_iso_or_equiv
  _atom_site_type_symbol
  La1      1.0000 0.12689  0.99675  0.12407  Biso   1.000  La
  Hf1      1.0000 0.13388  0.01198  0.62392  Biso   1.000  Hf
  Hf2      1.0000 0.13555  0.51811  0.12629  Biso   1.000  Hf
  Hf3      1.0000 0.13446  0.51499  0.62441  Biso   1.000  Hf
  Hf4      1.0000 0.63037  0.01100  0.12482  Biso   1.000  Hf
  Hf5      1.0000 0.63415  0.01446  0.62511  Biso   1.000  Hf
  Hf6      1.0000 0.63532  0.51259  0.12701  Biso   1.000  Hf
  Hf7      1.0000 0.63399  0.51155  0.62464  Biso   1.000  Hf
  Hf8      1.0000 0.14067  0.23244  0.38375  Biso   1.000  Hf
  Hf9      1.0000 0.13937  0.23023  0.86884  Biso   1.000  Hf
  Hf10     1.0000 0.13548  0.73046  0.37842  Biso   1.000  Hf
  Hf11     1.0000 0.13692  0.72785  0.87533  Biso   1.000  Hf
  Hf12     1.0000 0.63346  0.23295  0.37409  Biso   1.000  Hf
  Hf13     1.0000 0.63089  0.23131  0.87219  Biso   1.000  Hf
  Hf14     1.0000 0.63366  0.72894  0.37886  Biso   1.000  Hf
  Hf15     1.0000 0.63551  0.72705  0.87443  Biso   1.000  Hf
  Hf16     1.0000 0.36234  0.26449  0.12616  Biso   1.000  Hf
  Hf17     1.0000 0.36767  0.26379  0.62495  Biso   1.000  Hf
  Hf18     1.0000 0.37218  0.75903  0.12520  Biso   1.000  Hf
  Hf19     1.0000 0.36711  0.76271  0.62555  Biso   1.000  Hf
  La2      1.0000 0.87606  0.25628  0.11905  Biso   1.000  La
  Hf20     1.0000 0.86806  0.26471  0.62440  Biso   1.000  Hf
  Hf21     1.0000 0.86097  0.76292  0.12720  Biso   1.000  Hf
  Hf22     1.0000 0.86737  0.76301  0.62430  Biso   1.000  Hf
  Hf23     1.0000 0.36666  0.48096  0.37403  Biso   1.000  Hf
  Hf24     1.0000 0.36678  0.47869  0.87646  Biso   1.000  Hf
  Hf25     1.0000 0.36851  0.98048  0.37764  Biso   1.000  Hf
  Hf26     1.0000 0.36875  0.97882  0.87170  Biso   1.000  Hf
  Hf27     1.0000 0.86601  0.48208  0.37719  Biso   1.000  Hf
  Hf28     1.0000 0.86610  0.48287  0.86989  Biso   1.000  Hf
  Hf29     1.0000 0.86020  0.98239  0.38249  Biso   1.000  Hf
  Hf30     1.0000 0.86108  0.97788  0.87269  Biso   1.000  Hf
  Hf31     1.0000 0.05900  0.18847  0.20921  Biso   1.000  Hf
  Hf32     1.0000 0.04152  0.18400  0.68387  Biso   1.000  Hf
  Hf33     1.0000 0.04019  0.69602  0.19377  Biso   1.000  Hf
  Hf34     1.0000 0.03523  0.68178  0.69718  Biso   1.000  Hf
  Hf35     1.0000 0.53492  0.18375  0.19192  Biso   1.000  Hf
  Hf36     1.0000 0.53447  0.17944  0.69526  Biso   1.000  Hf
  Hf37     1.0000 0.53599  0.67746  0.20010  Biso   1.000  Hf
  Hf38     1.0000 0.53454  0.67835  0.69592  Biso   1.000  Hf
  Hf39     1.0000 0.03608  0.06120  0.44289  Biso   1.000  Hf
  Hf40     1.0000 0.01753  0.08353  0.93594  Biso   1.000  Hf
  Hf41     1.0000 0.03655  0.56609  0.44662  Biso   1.000  Hf
  Hf42     1.0000 0.03302  0.56884  0.94749  Biso   1.000  Hf
  Hf43     1.0000 0.53528  0.06486  0.44895  Biso   1.000  Hf
  Hf44     1.0000 0.53145  0.06374  0.94404  Biso   1.000  Hf
  Hf45     1.0000 0.53577  0.56187  0.44652  Biso   1.000  Hf
  Hf46     1.0000 0.53367  0.56373  0.94719  Biso   1.000  Hf
  Hf47     1.0000 0.46335  0.43185  0.19313  Biso   1.000  Hf
  Hf48     1.0000 0.46716  0.42902  0.69723  Biso   1.000  Hf
  Hf49     1.0000 0.46353  0.93110  0.19569  Biso   1.000  Hf
  Hf50     1.0000 0.46635  0.92876  0.69527  Biso   1.000  Hf
  Hf51     1.0000 0.96908  0.44915  0.20224  Biso   1.000  Hf
  Hf52     1.0000 0.96154  0.43693  0.68376  Biso   1.000  Hf
  Hf53     1.0000 0.92898  0.93873  0.19757  Biso   1.000  Hf
  Hf54     1.0000 0.96335  0.93074  0.69456  Biso   1.000  Hf
  Hf55     1.0000 0.46402  0.31364  0.44615  Biso   1.000  Hf
  Hf56     1.0000 0.46353  0.31284  0.94351  Biso   1.000  Hf
  Hf57     1.0000 0.46801  0.81396  0.44992  Biso   1.000  Hf
  Hf58     1.0000 0.47523  0.81438  0.94849  Biso   1.000  Hf
  Hf59     1.0000 0.96496  0.31381  0.44141  Biso   1.000  Hf
  Hf60     1.0000 0.97320  0.32599  0.91776  Biso   1.000  Hf
  Hf61     1.0000 0.96469  0.81434  0.44557  Biso   1.000  Hf
  Hf62     1.0000 0.97641  0.82445  0.95453  Biso   1.000  Hf
  Hf63     1.0000 0.28792  0.12353  0.25825  Biso   1.000  Hf
  Hf64     1.0000 0.27067  0.11227  0.74750  Biso   1.000  Hf
  Hf65     1.0000 0.26968  0.61222  0.24962  Biso   1.000  Hf
  Hf66     1.0000 0.27040  0.61376  0.74978  Biso   1.000  Hf
  Hf67     1.0000 0.75255  0.10499  0.25867  Biso   1.000  Hf
  Hf68     1.0000 0.77110  0.11488  0.74593  Biso   1.000  Hf
  Hf69     1.0000 0.77212  0.61712  0.24960  Biso   1.000  Hf
  Hf70     1.0000 0.76963  0.61477  0.74610  Biso   1.000  Hf
  Hf71     1.0000 0.27173  0.12742  0.50392  Biso   1.000  Hf
  Hf72     1.0000 0.27435  0.12889  0.99227  Biso   1.000  Hf
  Hf73     1.0000 0.27187  0.63015  0.49970  Biso   1.000  Hf
  Hf74     1.0000 0.27258  0.62457  0.99916  Biso   1.000  Hf
  Hf75     1.0000 0.76949  0.13229  0.50065  Biso   1.000  Hf
  Hf76     1.0000 0.75512  0.11711  0.98951  Biso   1.000  Hf
  Hf77     1.0000 0.77027  0.62985  0.49946  Biso   1.000  Hf
  Hf78     1.0000 0.77050  0.62782  0.99788  Biso   1.000  Hf
  Hf79     1.0000 0.23319  0.38228  0.50127  Biso   1.000  Hf
  Hf80     1.0000 0.22886  0.37814  0.99997  Biso   1.000  Hf
  Hf81     1.0000 0.23054  0.87972  0.49980  Biso   1.000  Hf
  Hf82     1.0000 0.24753  0.86399  0.98868  Biso   1.000  Hf
  Hf83     1.0000 0.73110  0.37909  0.50064  Biso   1.000  Hf
  Hf84     1.0000 0.72606  0.38284  0.99049  Biso   1.000  Hf
  Hf85     1.0000 0.72917  0.87916  0.50203  Biso   1.000  Hf
  Hf86     1.0000 0.73161  0.87272  0.99927  Biso   1.000  Hf
  Hf87     1.0000 0.23156  0.36805  0.25225  Biso   1.000  Hf
  Hf88     1.0000 0.23206  0.36591  0.74734  Biso   1.000  Hf
  Hf89     1.0000 0.24757  0.85132  0.25855  Biso   1.000  Hf
  Hf90     1.0000 0.22916  0.86348  0.74587  Biso   1.000  Hf
  Hf91     1.0000 0.72076  0.37493  0.25555  Biso   1.000  Hf
  Hf92     1.0000 0.73056  0.36397  0.74678  Biso   1.000  Hf
  Hf93     1.0000 0.71853  0.85936  0.25007  Biso   1.000  Hf
  Hf94     1.0000 0.73035  0.86258  0.74902  Biso   1.000  Hf
