data_image0
_cell_length_a       10.2092
_cell_length_b       10.3652
_cell_length_c       10.4865
_cell_angle_alpha    90
_cell_angle_beta     80
_cell_angle_gamma    90

_symmetry_space_group_name_H-M    "P 1"
_symmetry_int_tables_number       1

loop_
  _symmetry_equiv_pos_as_xyz
  'x, y, z'

loop_
  _atom_site_label
  _atom_site_occupancy
  _atom_site_fract_x
  _atom_site_fract_y
  _atom_site_fract_z
  _atom_site_thermal_displace_type
  _atom_site_B_iso_or_equiv
  _atom_site_type_symbol
  La1      1.0000 0.13137  0.01374  0.14286  Biso   1.000  La
  Hf1      1.0000 0.13216  0.02171  0.64647  Biso   1.000  Hf
  Hf2      1.0000 0.13388  0.52108  0.14512  Biso   1.000  Hf
  Hf3      1.0000 0.13198  0.52286  0.64734  Biso   1.000  Hf
  Hf4      1.0000 0.63667  0.02069  0.14537  Biso   1.000  Hf
  Hf5      1.0000 0.63996  0.02228  0.64256  Biso   1.000  Hf
  Hf6      1.0000 0.63490  0.51855  0.14875  Biso   1.000  Hf
  Hf7      1.0000 0.63019  0.52126  0.64571  Biso   1.000  Hf
  Hf8      1.0000 0.13455  0.22832  0.39820  Biso   1.000  Hf
  Hf9      1.0000 0.12305  0.23820  0.89594  Biso   1.000  Hf
  Hf10     1.0000 0.13237  0.72755  0.39733  Biso   1.000  Hf
  Hf11     1.0000 0.12852  0.72885  0.89498  Biso   1.000  Hf
  Hf12     1.0000 0.63127  0.22949  0.39744  Biso   1.000  Hf
  Hf13     1.0000 0.63370  0.23475  0.89875  Biso   1.000  Hf
  Hf14     1.0000 0.62898  0.72695  0.39693  Biso   1.000  Hf
  Hf15     1.0000 0.63205  0.72717  0.89650  Biso   1.000  Hf
  Hf16     1.0000 0.35682  0.27209  0.10662  Biso   1.000  Hf
  Hf17     1.0000 0.35296  0.27340  0.60427  Biso   1.000  Hf
  Hf18     1.0000 0.36230  0.76273  0.10568  Biso   1.000  Hf
  Hf19     1.0000 0.35078  0.77263  0.60342  Biso   1.000  Hf
  Hf20     1.0000 0.85329  0.27378  0.10507  Biso   1.000  Hf
  Hf21     1.0000 0.85637  0.27399  0.60465  Biso   1.000  Hf
  Hf22     1.0000 0.85164  0.76621  0.10283  Biso   1.000  Hf
  Hf23     1.0000 0.85407  0.77145  0.60414  Biso   1.000  Hf
  Hf24     1.0000 0.35338  0.47807  0.35427  Biso   1.000  Hf
  Hf25     1.0000 0.35149  0.47987  0.85649  Biso   1.000  Hf
  Hf26     1.0000 0.35319  0.97923  0.35515  Biso   1.000  Hf
  La2      1.0000 0.35399  0.98721  0.85875  Biso   1.000  La
  Hf27     1.0000 0.85514  0.47969  0.35585  Biso   1.000  Hf
  Hf28     1.0000 0.85044  0.48239  0.85284  Biso   1.000  Hf
  Hf29     1.0000 0.84538  0.97869  0.35898  Biso   1.000  Hf
  Hf30     1.0000 0.84868  0.98024  0.85621  Biso   1.000  Hf
  Hf31     1.0000 0.02576  0.18824  0.07680  Biso   1.000  Hf
  Hf32     1.0000 0.03027  0.17304  0.58398  Biso   1.000  Hf
  Hf33     1.0000 0.02918  0.66848  0.07990  Biso   1.000  Hf
  Hf34     1.0000 0.02764  0.67037  0.58185  Biso   1.000  Hf
  Hf35     1.0000 0.53259  0.16864  0.07876  Biso   1.000  Hf
  Hf36     1.0000 0.52668  0.16794  0.58208  Biso   1.000  Hf
  Hf37     1.0000 0.53851  0.66614  0.08469  Biso   1.000  Hf
  Hf38     1.0000 0.52500  0.66590  0.58050  Biso   1.000  Hf
  Hf39     1.0000 0.01956  0.08557  0.34673  Biso   1.000  Hf
  Hf40     1.0000 0.02896  0.07845  0.83695  Biso   1.000  Hf
  Hf41     1.0000 0.02798  0.58316  0.33039  Biso   1.000  Hf
  Hf42     1.0000 0.02478  0.58139  0.82960  Biso   1.000  Hf
  Hf43     1.0000 0.53265  0.07995  0.33097  Biso   1.000  Hf
  Hf44     1.0000 0.55719  0.08217  0.82496  Biso   1.000  Hf
  Hf45     1.0000 0.52775  0.57910  0.33279  Biso   1.000  Hf
  Hf46     1.0000 0.52954  0.57681  0.83160  Biso   1.000  Hf
  Hf47     1.0000 0.46060  0.41948  0.17205  Biso   1.000  Hf
  Hf48     1.0000 0.45739  0.41771  0.67125  Biso   1.000  Hf
  Hf49     1.0000 0.45641  0.92244  0.16469  Biso   1.000  Hf
  Hf50     1.0000 0.46580  0.91530  0.65492  Biso   1.000  Hf
  Hf51     1.0000 0.95580  0.42418  0.16994  Biso   1.000  Hf
  Hf52     1.0000 0.95757  0.42191  0.66875  Biso   1.000  Hf
  Hf53     1.0000 0.92808  0.91891  0.17651  Biso   1.000  Hf
  Hf54     1.0000 0.95268  0.92104  0.67056  Biso   1.000  Hf
  Hf55     1.0000 0.45774  0.33062  0.41978  Biso   1.000  Hf
  Hf56     1.0000 0.45620  0.33253  0.92177  Biso   1.000  Hf
  Hf57     1.0000 0.45512  0.82794  0.41765  Biso   1.000  Hf
  Hf58     1.0000 0.45961  0.81276  0.92484  Biso   1.000  Hf
  Hf59     1.0000 0.96032  0.33500  0.42105  Biso   1.000  Hf
  Hf60     1.0000 0.94680  0.33473  0.91683  Biso   1.000  Hf
  Hf61     1.0000 0.95862  0.83296  0.41944  Biso   1.000  Hf
  Hf62     1.0000 0.95273  0.83224  0.92276  Biso   1.000  Hf
  Hf63     1.0000 0.27979  0.13583  0.25085  Biso   1.000  Hf
  Hf64     1.0000 0.25529  0.14223  0.73575  Biso   1.000  Hf
  Hf65     1.0000 0.27016  0.62235  0.24084  Biso   1.000  Hf
  Hf66     1.0000 0.26896  0.62931  0.74202  Biso   1.000  Hf
  Hf67     1.0000 0.76905  0.13103  0.24265  Biso   1.000  Hf
  Hf68     1.0000 0.78250  0.13123  0.73829  Biso   1.000  Hf
  Hf69     1.0000 0.76842  0.62879  0.24249  Biso   1.000  Hf
  Hf70     1.0000 0.76749  0.62911  0.73850  Biso   1.000  Hf
  Hf71     1.0000 0.26973  0.12012  0.49246  Biso   1.000  Hf
  Hf72     1.0000 0.25963  0.14761  0.99320  Biso   1.000  Hf
  Hf73     1.0000 0.26774  0.62088  0.49133  Biso   1.000  Hf
  Hf74     1.0000 0.26369  0.61665  0.99288  Biso   1.000  Hf
  Hf75     1.0000 0.76733  0.12352  0.49203  Biso   1.000  Hf
  Hf76     1.0000 0.76493  0.12258  0.99313  Biso   1.000  Hf
  Hf77     1.0000 0.76789  0.62154  0.49098  Biso   1.000  Hf
  Hf78     1.0000 0.76533  0.61935  0.99129  Biso   1.000  Hf
  Hf79     1.0000 0.22165  0.38426  0.00872  Biso   1.000  Hf
  Hf80     1.0000 0.21759  0.38002  0.51028  Biso   1.000  Hf
  Hf81     1.0000 0.22571  0.85330  0.00842  Biso   1.000  Hf
  Hf82     1.0000 0.21562  0.88078  0.50915  Biso   1.000  Hf
  Hf83     1.0000 0.72001  0.38163  0.01029  Biso   1.000  Hf
  Hf84     1.0000 0.71746  0.37944  0.51060  Biso   1.000  Hf
  Hf85     1.0000 0.72040  0.87839  0.00844  Biso   1.000  Hf
  Hf86     1.0000 0.71803  0.87746  0.50954  Biso   1.000  Hf
  Hf87     1.0000 0.21641  0.37166  0.25959  Biso   1.000  Hf
  Hf88     1.0000 0.21519  0.37860  0.76079  Biso   1.000  Hf
  Hf89     1.0000 0.23007  0.85873  0.26586  Biso   1.000  Hf
  Hf90     1.0000 0.20554  0.86512  0.75076  Biso   1.000  Hf
  Hf91     1.0000 0.71786  0.37181  0.26307  Biso   1.000  Hf
  Hf92     1.0000 0.71694  0.37213  0.75907  Biso   1.000  Hf
  Hf93     1.0000 0.70284  0.86966  0.26326  Biso   1.000  Hf
  Hf94     1.0000 0.71629  0.86991  0.75890  Biso   1.000  Hf
