data_image0
_cell_length_a       10.037
_cell_length_b       10.3991
_cell_length_c       10.0687
_cell_angle_alpha    90
_cell_angle_beta     90
_cell_angle_gamma    90

_symmetry_space_group_name_H-M    "P 1"
_symmetry_int_tables_number       1

loop_
  _symmetry_equiv_pos_as_xyz
  'x, y, z'

loop_
  _atom_site_label
  _atom_site_occupancy
  _atom_site_fract_x
  _atom_site_fract_y
  _atom_site_fract_z
  _atom_site_thermal_displace_type
  _atom_site_B_iso_or_equiv
  _atom_site_type_symbol
  Hf1      1.0000 0.14258  0.99611  0.11264  Biso   1.000  Hf
  Hf2      1.0000 0.12792  0.01407  0.62293  Biso   1.000  Hf
  Hf3      1.0000 0.13794  0.51904  0.12419  Biso   1.000  Hf
  Hf4      1.0000 0.12876  0.51943  0.62458  Biso   1.000  Hf
  Hf5      1.0000 0.62860  0.01281  0.12510  Biso   1.000  Hf
  Hf6      1.0000 0.62718  0.01705  0.62454  Biso   1.000  Hf
  Hf7      1.0000 0.63923  0.51388  0.12534  Biso   1.000  Hf
  Hf8      1.0000 0.62747  0.51762  0.62841  Biso   1.000  Hf
  La1      1.0000 0.12484  0.24814  0.37951  Biso   1.000  La
  Hf9      1.0000 0.13127  0.23500  0.86777  Biso   1.000  Hf
  Hf10     1.0000 0.12908  0.73284  0.37523  Biso   1.000  Hf
  Hf11     1.0000 0.12767  0.73198  0.87303  Biso   1.000  Hf
  Hf12     1.0000 0.62984  0.23403  0.37562  Biso   1.000  Hf
  Hf13     1.0000 0.62534  0.23410  0.87415  Biso   1.000  Hf
  Hf14     1.0000 0.63092  0.73357  0.37628  Biso   1.000  Hf
  Hf15     1.0000 0.62743  0.73335  0.87600  Biso   1.000  Hf
  Hf16     1.0000 0.36820  0.26594  0.11891  Biso   1.000  Hf
  Hf17     1.0000 0.36354  0.26656  0.62260  Biso   1.000  Hf
  Hf18     1.0000 0.37167  0.76189  0.12521  Biso   1.000  Hf
  Hf19     1.0000 0.36126  0.76640  0.62214  Biso   1.000  Hf
  La2      1.0000 0.88073  0.25270  0.12316  Biso   1.000  La
  Hf20     1.0000 0.85565  0.26701  0.62928  Biso   1.000  Hf
  Hf21     1.0000 0.86637  0.76764  0.12663  Biso   1.000  Hf
  Hf22     1.0000 0.86044  0.76698  0.62715  Biso   1.000  Hf
  Hf23     1.0000 0.36969  0.48598  0.37061  Biso   1.000  Hf
  Hf24     1.0000 0.36095  0.48441  0.87326  Biso   1.000  Hf
  Hf25     1.0000 0.36093  0.98446  0.37376  Biso   1.000  Hf
  Hf26     1.0000 0.36274  0.98331  0.86954  Biso   1.000  Hf
  Hf27     1.0000 0.85632  0.48421  0.38123  Biso   1.000  Hf
  Hf28     1.0000 0.86050  0.48573  0.87164  Biso   1.000  Hf
  Hf29     1.0000 0.85805  0.98128  0.38149  Biso   1.000  Hf
  Hf30     1.0000 0.85720  0.98397  0.87753  Biso   1.000  Hf
  Hf31     1.0000 0.03012  0.18382  0.69087  Biso   1.000  Hf
  Hf32     1.0000 0.03601  0.68742  0.19325  Biso   1.000  Hf
  Hf33     1.0000 0.02855  0.68425  0.69758  Biso   1.000  Hf
  Hf34     1.0000 0.52900  0.18031  0.19584  Biso   1.000  Hf
  Hf35     1.0000 0.52939  0.18322  0.69587  Biso   1.000  Hf
  Hf36     1.0000 0.53709  0.68116  0.19689  Biso   1.000  Hf
  Hf37     1.0000 0.52841  0.68543  0.69630  Biso   1.000  Hf
  Hf38     1.0000 0.02111  0.05823  0.45473  Biso   1.000  Hf
  Hf39     1.0000 0.01526  0.08389  0.96671  Biso   1.000  Hf
  Hf40     1.0000 0.03228  0.56423  0.44595  Biso   1.000  Hf
  Hf41     1.0000 0.02724  0.57124  0.94652  Biso   1.000  Hf
  Hf42     1.0000 0.52979  0.06511  0.44503  Biso   1.000  Hf
  Hf43     1.0000 0.52120  0.06849  0.94604  Biso   1.000  Hf
  Hf44     1.0000 0.53173  0.56942  0.44727  Biso   1.000  Hf
  Hf45     1.0000 0.53011  0.56660  0.94385  Biso   1.000  Hf
  Hf46     1.0000 0.47048  0.43305  0.19094  Biso   1.000  Hf
  Hf47     1.0000 0.46087  0.43299  0.69698  Biso   1.000  Hf
  Hf48     1.0000 0.46142  0.93181  0.19447  Biso   1.000  Hf
  Hf49     1.0000 0.45885  0.93376  0.69335  Biso   1.000  Hf
  Hf50     1.0000 0.98529  0.43065  0.21590  Biso   1.000  Hf
  Hf51     1.0000 0.95582  0.43791  0.68609  Biso   1.000  Hf
  Hf52     1.0000 0.96631  0.95289  0.20042  Biso   1.000  Hf
  Hf53     1.0000 0.96112  0.93204  0.70312  Biso   1.000  Hf
  Hf54     1.0000 0.45779  0.31398  0.44060  Biso   1.000  Hf
  Hf55     1.0000 0.45618  0.31654  0.94291  Biso   1.000  Hf
  Hf56     1.0000 0.46064  0.81790  0.44305  Biso   1.000  Hf
  Hf57     1.0000 0.46175  0.81749  0.94672  Biso   1.000  Hf
  Hf58     1.0000 0.92905  0.31283  0.44657  Biso   1.000  Hf
  Hf59     1.0000 0.96405  0.32514  0.92277  Biso   1.000  Hf
  Hf60     1.0000 0.95785  0.81155  0.44605  Biso   1.000  Hf
  Hf61     1.0000 0.96806  0.82739  0.95551  Biso   1.000  Hf
  Hf62     1.0000 0.25102  0.10994  0.23688  Biso   1.000  Hf
  Hf63     1.0000 0.26220  0.11648  0.74805  Biso   1.000  Hf
  Hf64     1.0000 0.27033  0.61822  0.24814  Biso   1.000  Hf
  Hf65     1.0000 0.26437  0.61755  0.74811  Biso   1.000  Hf
  Hf66     1.0000 0.75475  0.10716  0.25745  Biso   1.000  Hf
  Hf67     1.0000 0.76306  0.11768  0.75007  Biso   1.000  Hf
  Hf68     1.0000 0.77231  0.61802  0.24902  Biso   1.000  Hf
  Hf69     1.0000 0.76386  0.62020  0.74923  Biso   1.000  Hf
  Hf70     1.0000 0.27470  0.12425  0.50379  Biso   1.000  Hf
  Hf71     1.0000 0.25949  0.12883  0.99471  Biso   1.000  Hf
  Hf72     1.0000 0.26491  0.63688  0.49739  Biso   1.000  Hf
  Hf73     1.0000 0.26517  0.63294  0.99685  Biso   1.000  Hf
  Hf74     1.0000 0.76005  0.13132  0.50361  Biso   1.000  Hf
  Hf75     1.0000 0.74852  0.12308  0.99339  Biso   1.000  Hf
  Hf76     1.0000 0.76474  0.63257  0.50130  Biso   1.000  Hf
  Hf77     1.0000 0.77445  0.63552  0.00000  Biso   1.000  Hf
  Hf78     1.0000 0.24009  0.39620  0.50464  Biso   1.000  Hf
  Hf79     1.0000 0.22081  0.38308  0.99328  Biso   1.000  Hf
  Hf80     1.0000 0.22398  0.88232  0.49453  Biso   1.000  Hf
  Hf81     1.0000 0.22953  0.87759  0.99199  Biso   1.000  Hf
  Hf82     1.0000 0.71167  0.38332  0.50469  Biso   1.000  Hf
  Hf83     1.0000 0.72468  0.38428  0.99632  Biso   1.000  Hf
  Hf84     1.0000 0.72336  0.88013  0.50230  Biso   1.000  Hf
  Hf85     1.0000 0.73303  0.88079  0.00027  Biso   1.000  Hf
  Hf86     1.0000 0.24318  0.37408  0.23625  Biso   1.000  Hf
  Hf87     1.0000 0.22546  0.36740  0.74551  Biso   1.000  Hf
  Hf88     1.0000 0.23095  0.85988  0.24521  Biso   1.000  Hf
  Hf89     1.0000 0.22479  0.86513  0.74544  Biso   1.000  Hf
  Hf90     1.0000 0.72439  0.37339  0.25472  Biso   1.000  Hf
  Hf91     1.0000 0.72265  0.36933  0.75145  Biso   1.000  Hf
  Hf92     1.0000 0.73073  0.86320  0.24919  Biso   1.000  Hf
  Hf93     1.0000 0.72481  0.86860  0.75144  Biso   1.000  Hf
