data_image0
_cell_length_a       10.1416
_cell_length_b       10.2991
_cell_length_c       10.5424
_cell_angle_alpha    90
_cell_angle_beta     90
_cell_angle_gamma    90

_symmetry_space_group_name_H-M    "P 1"
_symmetry_int_tables_number       1

loop_
  _symmetry_equiv_pos_as_xyz
  'x, y, z'

loop_
  _atom_site_label
  _atom_site_occupancy
  _atom_site_fract_x
  _atom_site_fract_y
  _atom_site_fract_z
  _atom_site_thermal_displace_type
  _atom_site_B_iso_or_equiv
  _atom_site_type_symbol
  Hf1      1.0000 0.12229  0.01289  0.15433  Biso   1.000  Hf
  Hf2      1.0000 0.14267  0.01337  0.66872  Biso   1.000  Hf
  Hf3      1.0000 0.13647  0.52852  0.17101  Biso   1.000  Hf
  Hf4      1.0000 0.14517  0.50905  0.67419  Biso   1.000  Hf
  La1      1.0000 0.14347  0.22859  0.40769  Biso   1.000  La
  Hf5      1.0000 0.14199  0.22190  0.91700  Biso   1.000  Hf
  Hf6      1.0000 0.12748  0.71703  0.43407  Biso   1.000  Hf
  Hf7      1.0000 0.14509  0.71729  0.91986  Biso   1.000  Hf
  La2      1.0000 0.36301  0.25836  0.16883  Biso   1.000  La
  Hf8      1.0000 0.36888  0.25932  0.67524  Biso   1.000  Hf
  Hf9      1.0000 0.37473  0.76730  0.15725  Biso   1.000  Hf
  Hf10     1.0000 0.36782  0.76053  0.66999  Biso   1.000  Hf
  Hf11     1.0000 0.38007  0.46732  0.43850  Biso   1.000  Hf
  Hf12     1.0000 0.36706  0.46859  0.92122  Biso   1.000  Hf
  Hf13     1.0000 0.37959  0.97414  0.43070  Biso   1.000  Hf
  Hf14     1.0000 0.36781  0.96947  0.91718  Biso   1.000  Hf
  Hf15     1.0000 0.64306  0.01738  0.07680  Biso   1.000  Hf
  Hf16     1.0000 0.64712  0.01234  0.58293  Biso   1.000  Hf
  Hf17     1.0000 0.64022  0.51605  0.07422  Biso   1.000  Hf
  Hf18     1.0000 0.64888  0.51267  0.58260  Biso   1.000  Hf
  Hf19     1.0000 0.64811  0.22254  0.33481  Biso   1.000  Hf
  Hf20     1.0000 0.64437  0.21785  0.83063  Biso   1.000  Hf
  Hf21     1.0000 0.63923  0.72476  0.32841  Biso   1.000  Hf
  Hf22     1.0000 0.64271  0.71781  0.82735  Biso   1.000  Hf
  Hf23     1.0000 0.85981  0.26951  0.08126  Biso   1.000  Hf
  Hf24     1.0000 0.86588  0.26184  0.58223  Biso   1.000  Hf
  Hf25     1.0000 0.85788  0.76317  0.07380  Biso   1.000  Hf
  Hf26     1.0000 0.86181  0.76260  0.58073  Biso   1.000  Hf
  Hf27     1.0000 0.85931  0.47495  0.32946  Biso   1.000  Hf
  Hf28     1.0000 0.86973  0.46673  0.82937  Biso   1.000  Hf
  Hf29     1.0000 0.86154  0.97052  0.32620  Biso   1.000  Hf
  Hf30     1.0000 0.87118  0.96750  0.82767  Biso   1.000  Hf
  Hf31     1.0000 0.03083  0.16611  0.08275  Biso   1.000  Hf
  Hf32     1.0000 0.03099  0.15044  0.58662  Biso   1.000  Hf
  Hf33     1.0000 0.02804  0.65942  0.07378  Biso   1.000  Hf
  Hf34     1.0000 0.02844  0.64683  0.58710  Biso   1.000  Hf
  Hf35     1.0000 0.02944  0.06389  0.31975  Biso   1.000  Hf
  Hf36     1.0000 0.03800  0.07468  0.83167  Biso   1.000  Hf
  Hf37     1.0000 0.02845  0.57797  0.33515  Biso   1.000  Hf
  Hf38     1.0000 0.03929  0.57399  0.83274  Biso   1.000  Hf
  Hf39     1.0000 0.47065  0.42219  0.07674  Biso   1.000  Hf
  Hf40     1.0000 0.48037  0.40819  0.59666  Biso   1.000  Hf
  Hf41     1.0000 0.46931  0.91911  0.07764  Biso   1.000  Hf
  Hf42     1.0000 0.47902  0.90256  0.58845  Biso   1.000  Hf
  Hf43     1.0000 0.47397  0.31599  0.35830  Biso   1.000  Hf
  Hf44     1.0000 0.47229  0.32031  0.83788  Biso   1.000  Hf
  Hf45     1.0000 0.46015  0.82629  0.32821  Biso   1.000  Hf
  Hf46     1.0000 0.47194  0.82196  0.83272  Biso   1.000  Hf
  Hf47     1.0000 0.28010  0.11417  0.79066  Biso   1.000  Hf
  Hf48     1.0000 0.23346  0.69770  0.27337  Biso   1.000  Hf
  Hf49     1.0000 0.28160  0.61390  0.79232  Biso   1.000  Hf
  Hf50     1.0000 0.25619  0.11276  0.02822  Biso   1.000  Hf
  Hf51     1.0000 0.28958  0.11363  0.54962  Biso   1.000  Hf
  Hf52     1.0000 0.27936  0.62492  0.04147  Biso   1.000  Hf
  Hf53     1.0000 0.27733  0.61839  0.54236  Biso   1.000  Hf
  Hf54     1.0000 0.24818  0.42217  0.29800  Biso   1.000  Hf
  Hf55     1.0000 0.23137  0.36343  0.79600  Biso   1.000  Hf
  Hf56     1.0000 0.27521  0.04642  0.27988  Biso   1.000  Hf
  Hf57     1.0000 0.23106  0.86375  0.79093  Biso   1.000  Hf
  Hf58     1.0000 0.21260  0.38415  0.03717  Biso   1.000  Hf
  Hf59     1.0000 0.24092  0.37143  0.55711  Biso   1.000  Hf
  Hf60     1.0000 0.22660  0.86862  0.04568  Biso   1.000  Hf
  Hf61     1.0000 0.23065  0.86757  0.53448  Biso   1.000  Hf
  Hf62     1.0000 0.55719  0.15927  0.17255  Biso   1.000  Hf
  Hf63     1.0000 0.54115  0.15520  0.66860  Biso   1.000  Hf
  Hf64     1.0000 0.53636  0.66064  0.16483  Biso   1.000  Hf
  Hf65     1.0000 0.53890  0.65689  0.66616  Biso   1.000  Hf
  Hf66     1.0000 0.54394  0.07426  0.42103  Biso   1.000  Hf
  Hf67     1.0000 0.53748  0.07568  0.91809  Biso   1.000  Hf
  Hf68     1.0000 0.53708  0.58205  0.41969  Biso   1.000  Hf
  Hf69     1.0000 0.54019  0.57559  0.91407  Biso   1.000  Hf
  Hf70     1.0000 0.97064  0.40953  0.17148  Biso   1.000  Hf
  Hf71     1.0000 0.97631  0.39995  0.67249  Biso   1.000  Hf
  Hf72     1.0000 0.96586  0.89623  0.16695  Biso   1.000  Hf
  Hf73     1.0000 0.97490  0.90059  0.66899  Biso   1.000  Hf
  Hf74     1.0000 0.95383  0.33434  0.42364  Biso   1.000  Hf
  Hf75     1.0000 0.96903  0.32325  0.91907  Biso   1.000  Hf
  Hf76     1.0000 0.96886  0.82986  0.42323  Biso   1.000  Hf
  Hf77     1.0000 0.97648  0.82625  0.91803  Biso   1.000  Hf
  Hf78     1.0000 0.78216  0.11153  0.95600  Biso   1.000  Hf
  Hf79     1.0000 0.78121  0.11482  0.45834  Biso   1.000  Hf
  Hf80     1.0000 0.78166  0.61013  0.95202  Biso   1.000  Hf
  Hf81     1.0000 0.77702  0.61898  0.45489  Biso   1.000  Hf
  Hf82     1.0000 0.78962  0.11996  0.20664  Biso   1.000  Hf
  Hf83     1.0000 0.78053  0.11475  0.70829  Biso   1.000  Hf
  Hf84     1.0000 0.77396  0.62299  0.20470  Biso   1.000  Hf
  Hf85     1.0000 0.78134  0.61612  0.70574  Biso   1.000  Hf
  Hf86     1.0000 0.73053  0.36097  0.95641  Biso   1.000  Hf
  Hf87     1.0000 0.72170  0.36841  0.45977  Biso   1.000  Hf
  Hf88     1.0000 0.73310  0.85987  0.95204  Biso   1.000  Hf
  Hf89     1.0000 0.72569  0.86457  0.45515  Biso   1.000  Hf
  Hf90     1.0000 0.72488  0.37194  0.20730  Biso   1.000  Hf
  Hf91     1.0000 0.73191  0.36684  0.70861  Biso   1.000  Hf
  Hf92     1.0000 0.72187  0.87150  0.20364  Biso   1.000  Hf
  Hf93     1.0000 0.73140  0.86629  0.70513  Biso   1.000  Hf
