data_image0
_cell_length_a       10.2231
_cell_length_b       10.3348
_cell_length_c       10.5148
_cell_angle_alpha    90
_cell_angle_beta     80
_cell_angle_gamma    90

_symmetry_space_group_name_H-M    "P 1"
_symmetry_int_tables_number       1

loop_
  _symmetry_equiv_pos_as_xyz
  'x, y, z'

loop_
  _atom_site_label
  _atom_site_occupancy
  _atom_site_fract_x
  _atom_site_fract_y
  _atom_site_fract_z
  _atom_site_thermal_displace_type
  _atom_site_B_iso_or_equiv
  _atom_site_type_symbol
  La1      1.0000 0.13423  0.01486  0.14256  Biso   1.000  La
  Hf1      1.0000 0.13235  0.02117  0.64755  Biso   1.000  Hf
  Hf2      1.0000 0.13381  0.51979  0.14324  Biso   1.000  Hf
  Hf3      1.0000 0.12744  0.52117  0.64899  Biso   1.000  Hf
  Hf4      1.0000 0.63826  0.02009  0.14617  Biso   1.000  Hf
  Hf5      1.0000 0.63398  0.02083  0.65002  Biso   1.000  Hf
  Hf6      1.0000 0.64127  0.51913  0.13995  Biso   1.000  Hf
  Hf7      1.0000 0.62879  0.52053  0.64494  Biso   1.000  Hf
  Hf8      1.0000 0.13430  0.22945  0.39828  Biso   1.000  Hf
  Hf9      1.0000 0.12914  0.23255  0.89535  Biso   1.000  Hf
  Hf10     1.0000 0.12631  0.73036  0.39775  Biso   1.000  Hf
  Hf11     1.0000 0.12989  0.72676  0.89580  Biso   1.000  Hf
  Hf12     1.0000 0.63520  0.22721  0.39816  Biso   1.000  Hf
  Hf13     1.0000 0.63038  0.22729  0.89725  Biso   1.000  Hf
  Hf14     1.0000 0.63198  0.73224  0.39888  Biso   1.000  Hf
  Hf15     1.0000 0.62813  0.72768  0.89551  Biso   1.000  Hf
  Hf16     1.0000 0.35835  0.27008  0.10228  Biso   1.000  Hf
  Hf17     1.0000 0.35443  0.26607  0.60674  Biso   1.000  Hf
  Hf18     1.0000 0.36093  0.76913  0.10274  Biso   1.000  Hf
  Hf19     1.0000 0.34820  0.77183  0.60624  Biso   1.000  Hf
  Hf20     1.0000 0.85745  0.27230  0.10237  Biso   1.000  Hf
  Hf21     1.0000 0.85317  0.27129  0.60482  Biso   1.000  Hf
  Hf22     1.0000 0.85518  0.76727  0.10159  Biso   1.000  Hf
  Hf23     1.0000 0.84994  0.77091  0.60648  Biso   1.000  Hf
  La2      1.0000 0.35845  0.48467  0.35800  Biso   1.000  La
  Hf24     1.0000 0.35125  0.47743  0.85450  Biso   1.000  Hf
  Hf25     1.0000 0.35338  0.97973  0.35733  Biso   1.000  Hf
  Hf26     1.0000 0.35062  0.97744  0.85308  Biso   1.000  Hf
  Hf27     1.0000 0.85441  0.47939  0.35436  Biso   1.000  Hf
  Hf28     1.0000 0.84959  0.47777  0.85198  Biso   1.000  Hf
  Hf29     1.0000 0.84591  0.98035  0.36057  Biso   1.000  Hf
  Hf30     1.0000 0.84929  0.97810  0.85708  Biso   1.000  Hf
  Hf31     1.0000 0.03356  0.18985  0.07525  Biso   1.000  Hf
  Hf32     1.0000 0.02651  0.16891  0.58528  Biso   1.000  Hf
  Hf33     1.0000 0.03291  0.67136  0.07723  Biso   1.000  Hf
  Hf34     1.0000 0.01649  0.66421  0.58126  Biso   1.000  Hf
  Hf35     1.0000 0.53453  0.16569  0.07787  Biso   1.000  Hf
  Hf36     1.0000 0.53043  0.16515  0.58677  Biso   1.000  Hf
  Hf37     1.0000 0.53312  0.66573  0.07734  Biso   1.000  Hf
  Hf38     1.0000 0.52165  0.66432  0.57853  Biso   1.000  Hf
  Hf39     1.0000 0.02088  0.08564  0.34689  Biso   1.000  Hf
  Hf40     1.0000 0.02826  0.08057  0.83370  Biso   1.000  Hf
  Hf41     1.0000 0.02802  0.58069  0.33061  Biso   1.000  Hf
  Hf42     1.0000 0.02251  0.58214  0.82937  Biso   1.000  Hf
  Hf43     1.0000 0.53754  0.07513  0.33227  Biso   1.000  Hf
  Hf44     1.0000 0.52990  0.07953  0.83166  Biso   1.000  Hf
  Hf45     1.0000 0.55531  0.58307  0.32084  Biso   1.000  Hf
  Hf46     1.0000 0.52445  0.58161  0.82845  Biso   1.000  Hf
  Hf47     1.0000 0.47183  0.41378  0.15376  Biso   1.000  Hf
  Hf48     1.0000 0.45537  0.41793  0.66844  Biso   1.000  Hf
  Hf49     1.0000 0.45918  0.91876  0.16994  Biso   1.000  Hf
  Hf50     1.0000 0.45564  0.91635  0.67273  Biso   1.000  Hf
  Hf51     1.0000 0.95513  0.42440  0.16827  Biso   1.000  Hf
  Hf52     1.0000 0.95367  0.41909  0.67035  Biso   1.000  Hf
  Hf53     1.0000 0.93174  0.91662  0.17951  Biso   1.000  Hf
  Hf54     1.0000 0.95361  0.91706  0.67351  Biso   1.000  Hf
  Hf55     1.0000 0.45913  0.30975  0.42538  Biso   1.000  Hf
  Hf56     1.0000 0.45712  0.32978  0.91687  Biso   1.000  Hf
  Hf57     1.0000 0.45431  0.82824  0.42340  Biso   1.000  Hf
  Hf58     1.0000 0.46164  0.83446  0.92085  Biso   1.000  Hf
  Hf59     1.0000 0.95810  0.33375  0.42263  Biso   1.000  Hf
  Hf60     1.0000 0.95311  0.33338  0.91524  Biso   1.000  Hf
  Hf61     1.0000 0.95403  0.83363  0.42308  Biso   1.000  Hf
  Hf62     1.0000 0.95635  0.83412  0.92341  Biso   1.000  Hf
  Hf63     1.0000 0.28404  0.13506  0.25115  Biso   1.000  Hf
  Hf64     1.0000 0.26789  0.12662  0.74069  Biso   1.000  Hf
  Hf65     1.0000 0.25828  0.63555  0.23307  Biso   1.000  Hf
  Hf66     1.0000 0.26590  0.62799  0.74350  Biso   1.000  Hf
  Hf67     1.0000 0.77330  0.12948  0.24136  Biso   1.000  Hf
  Hf68     1.0000 0.76996  0.12862  0.74345  Biso   1.000  Hf
  Hf69     1.0000 0.78164  0.62875  0.23627  Biso   1.000  Hf
  Hf70     1.0000 0.76322  0.62837  0.73981  Biso   1.000  Hf
  Hf71     1.0000 0.26783  0.11918  0.49524  Biso   1.000  Hf
  Hf72     1.0000 0.27555  0.12714  0.98047  Biso   1.000  Hf
  Hf73     1.0000 0.25109  0.63358  0.50448  Biso   1.000  Hf
  Hf74     1.0000 0.26446  0.61671  0.98946  Biso   1.000  Hf
  Hf75     1.0000 0.76824  0.12168  0.49526  Biso   1.000  Hf
  Hf76     1.0000 0.76699  0.11956  0.99231  Biso   1.000  Hf
  Hf77     1.0000 0.76573  0.62184  0.49107  Biso   1.000  Hf
  Hf78     1.0000 0.76398  0.61889  0.98815  Biso   1.000  Hf
  Hf79     1.0000 0.22484  0.38031  0.00532  Biso   1.000  Hf
  Hf80     1.0000 0.20808  0.37145  0.52161  Biso   1.000  Hf
  Hf81     1.0000 0.22699  0.86500  0.99759  Biso   1.000  Hf
  Hf82     1.0000 0.21363  0.88186  0.51262  Biso   1.000  Hf
  Hf83     1.0000 0.72441  0.37785  0.00526  Biso   1.000  Hf
  Hf84     1.0000 0.71661  0.37908  0.50973  Biso   1.000  Hf
  Hf85     1.0000 0.72140  0.87771  0.00942  Biso   1.000  Hf
  Hf86     1.0000 0.71412  0.87972  0.51383  Biso   1.000  Hf
  Hf87     1.0000 0.20860  0.36451  0.24943  Biso   1.000  Hf
  Hf88     1.0000 0.21567  0.37201  0.76139  Biso   1.000  Hf
  Hf89     1.0000 0.22893  0.86398  0.26749  Biso   1.000  Hf
  Hf90     1.0000 0.21221  0.87061  0.75856  Biso   1.000  Hf
  Hf91     1.0000 0.71933  0.37000  0.25921  Biso   1.000  Hf
  Hf92     1.0000 0.71364  0.36994  0.75858  Biso   1.000  Hf
  Hf93     1.0000 0.70552  0.87069  0.26422  Biso   1.000  Hf
  Hf94     1.0000 0.71488  0.87019  0.76217  Biso   1.000  Hf
