data_image0
_cell_length_a       10.1752
_cell_length_b       10.3737
_cell_length_c       10.4629
_cell_angle_alpha    90
_cell_angle_beta     80
_cell_angle_gamma    90

_symmetry_space_group_name_H-M    "P 1"
_symmetry_int_tables_number       1

loop_
  _symmetry_equiv_pos_as_xyz
  'x, y, z'

loop_
  _atom_site_label
  _atom_site_occupancy
  _atom_site_fract_x
  _atom_site_fract_y
  _atom_site_fract_z
  _atom_site_thermal_displace_type
  _atom_site_B_iso_or_equiv
  _atom_site_type_symbol
  La1      1.0000 0.12819  0.01278  0.13946  Biso   1.000  La
  La2      1.0000 0.12041  0.01248  0.64069  Biso   1.000  La
  Hf1      1.0000 0.13441  0.52035  0.14422  Biso   1.000  Hf
  Hf2      1.0000 0.12663  0.52006  0.64547  Biso   1.000  Hf
  Hf3      1.0000 0.63850  0.02198  0.14843  Biso   1.000  Hf
  Hf4      1.0000 0.63073  0.02167  0.64971  Biso   1.000  Hf
  Hf5      1.0000 0.63313  0.51773  0.14642  Biso   1.000  Hf
  Hf6      1.0000 0.62537  0.51743  0.64767  Biso   1.000  Hf
  Hf7      1.0000 0.13017  0.23277  0.39587  Biso   1.000  Hf
  Hf8      1.0000 0.12241  0.23247  0.89711  Biso   1.000  Hf
  Hf9      1.0000 0.13244  0.72534  0.39481  Biso   1.000  Hf
  Hf10     1.0000 0.12468  0.72506  0.89606  Biso   1.000  Hf
  Hf11     1.0000 0.63143  0.22996  0.39813  Biso   1.000  Hf
  Hf12     1.0000 0.62367  0.22966  0.89937  Biso   1.000  Hf
  Hf13     1.0000 0.62899  0.72576  0.39649  Biso   1.000  Hf
  Hf14     1.0000 0.62123  0.72546  0.89774  Biso   1.000  Hf
  Hf15     1.0000 0.35762  0.26886  0.10345  Biso   1.000  Hf
  Hf16     1.0000 0.34988  0.26856  0.60469  Biso   1.000  Hf
  Hf17     1.0000 0.36049  0.76748  0.10350  Biso   1.000  Hf
  Hf18     1.0000 0.35273  0.76717  0.60474  Biso   1.000  Hf
  Hf19     1.0000 0.85680  0.27463  0.10447  Biso   1.000  Hf
  Hf20     1.0000 0.84903  0.27431  0.60572  Biso   1.000  Hf
  Hf21     1.0000 0.85365  0.76424  0.10275  Biso   1.000  Hf
  Hf22     1.0000 0.84589  0.76395  0.60400  Biso   1.000  Hf
  Hf23     1.0000 0.35273  0.47657  0.35350  Biso   1.000  Hf
  Hf24     1.0000 0.34497  0.47627  0.85477  Biso   1.000  Hf
  Hf25     1.0000 0.35459  0.97869  0.35170  Biso   1.000  Hf
  Hf26     1.0000 0.34680  0.97840  0.85295  Biso   1.000  Hf
  Hf27     1.0000 0.85380  0.47925  0.35364  Biso   1.000  Hf
  Hf28     1.0000 0.84602  0.47897  0.85488  Biso   1.000  Hf
  Hf29     1.0000 0.84464  0.97853  0.36498  Biso   1.000  Hf
  Hf30     1.0000 0.83688  0.97825  0.86622  Biso   1.000  Hf
  Hf31     1.0000 0.03696  0.19927  0.08456  Biso   1.000  Hf
  Hf32     1.0000 0.02922  0.19899  0.58583  Biso   1.000  Hf
  Hf33     1.0000 0.03610  0.67776  0.08473  Biso   1.000  Hf
  Hf34     1.0000 0.02835  0.67746  0.58598  Biso   1.000  Hf
  Hf35     1.0000 0.53379  0.16873  0.08071  Biso   1.000  Hf
  Hf36     1.0000 0.52605  0.16843  0.58197  Biso   1.000  Hf
  Hf37     1.0000 0.53352  0.66625  0.07954  Biso   1.000  Hf
  Hf38     1.0000 0.52578  0.66594  0.58076  Biso   1.000  Hf
  Hf39     1.0000 0.02475  0.07618  0.35536  Biso   1.000  Hf
  Hf40     1.0000 0.01697  0.07591  0.85659  Biso   1.000  Hf
  Hf41     1.0000 0.02966  0.57718  0.33219  Biso   1.000  Hf
  Hf42     1.0000 0.02191  0.57688  0.83344  Biso   1.000  Hf
  Hf43     1.0000 0.53354  0.08060  0.33096  Biso   1.000  Hf
  Hf44     1.0000 0.52576  0.08031  0.83220  Biso   1.000  Hf
  Hf45     1.0000 0.52649  0.58008  0.32975  Biso   1.000  Hf
  Hf46     1.0000 0.51872  0.57979  0.83098  Biso   1.000  Hf
  Hf47     1.0000 0.45990  0.41663  0.17029  Biso   1.000  Hf
  Hf48     1.0000 0.45216  0.41633  0.67153  Biso   1.000  Hf
  Hf49     1.0000 0.45986  0.91943  0.16826  Biso   1.000  Hf
  Hf50     1.0000 0.45210  0.91912  0.66952  Biso   1.000  Hf
  Hf51     1.0000 0.95281  0.43187  0.16384  Biso   1.000  Hf
  Hf52     1.0000 0.94506  0.43156  0.66508  Biso   1.000  Hf
  Hf53     1.0000 0.92228  0.92325  0.17651  Biso   1.000  Hf
  Hf54     1.0000 0.91452  0.92295  0.67775  Biso   1.000  Hf
  Hf55     1.0000 0.45803  0.33179  0.42058  Biso   1.000  Hf
  Hf56     1.0000 0.45027  0.33150  0.92184  Biso   1.000  Hf
  Hf57     1.0000 0.46228  0.83311  0.42065  Biso   1.000  Hf
  Hf58     1.0000 0.45452  0.83281  0.92192  Biso   1.000  Hf
  Hf59     1.0000 0.95099  0.32907  0.41322  Biso   1.000  Hf
  Hf60     1.0000 0.94323  0.32879  0.91447  Biso   1.000  Hf
  Hf61     1.0000 0.95538  0.82862  0.42108  Biso   1.000  Hf
  Hf62     1.0000 0.94761  0.82835  0.92233  Biso   1.000  Hf
  Hf63     1.0000 0.27735  0.13443  0.24561  Biso   1.000  Hf
  Hf64     1.0000 0.26961  0.13412  0.74687  Biso   1.000  Hf
  Hf65     1.0000 0.27111  0.62365  0.23846  Biso   1.000  Hf
  Hf66     1.0000 0.26338  0.62335  0.73970  Biso   1.000  Hf
  Hf67     1.0000 0.77243  0.13240  0.24531  Biso   1.000  Hf
  Hf68     1.0000 0.76467  0.13209  0.74656  Biso   1.000  Hf
  Hf69     1.0000 0.76745  0.62923  0.24101  Biso   1.000  Hf
  Hf70     1.0000 0.75971  0.62893  0.74227  Biso   1.000  Hf
  Hf71     1.0000 0.27598  0.12655  0.48276  Biso   1.000  Hf
  Hf72     1.0000 0.26821  0.12626  0.98401  Biso   1.000  Hf
  Hf73     1.0000 0.26606  0.61713  0.49041  Biso   1.000  Hf
  Hf74     1.0000 0.25829  0.61685  0.99165  Biso   1.000  Hf
  Hf75     1.0000 0.76547  0.12172  0.49660  Biso   1.000  Hf
  Hf76     1.0000 0.75772  0.12144  0.99785  Biso   1.000  Hf
  Hf77     1.0000 0.76579  0.61848  0.49097  Biso   1.000  Hf
  Hf78     1.0000 0.75804  0.61821  0.99221  Biso   1.000  Hf
  Hf79     1.0000 0.22360  0.38064  0.00657  Biso   1.000  Hf
  Hf80     1.0000 0.21585  0.38036  0.50781  Biso   1.000  Hf
  Hf81     1.0000 0.22129  0.86586  0.99917  Biso   1.000  Hf
  Hf82     1.0000 0.22907  0.86615  0.49794  Biso   1.000  Hf
  Hf83     1.0000 0.72040  0.38013  0.00889  Biso   1.000  Hf
  Hf84     1.0000 0.71264  0.37983  0.51014  Biso   1.000  Hf
  Hf85     1.0000 0.71988  0.87723  0.01226  Biso   1.000  Hf
  Hf86     1.0000 0.71211  0.87693  0.51352  Biso   1.000  Hf
  Hf87     1.0000 0.21568  0.37209  0.25699  Biso   1.000  Hf
  Hf88     1.0000 0.20793  0.37177  0.75823  Biso   1.000  Hf
  Hf89     1.0000 0.22761  0.85842  0.26015  Biso   1.000  Hf
  Hf90     1.0000 0.21985  0.85812  0.76139  Biso   1.000  Hf
  Hf91     1.0000 0.71684  0.37202  0.26024  Biso   1.000  Hf
  Hf92     1.0000 0.70909  0.37171  0.76148  Biso   1.000  Hf
  Hf93     1.0000 0.70469  0.87023  0.26601  Biso   1.000  Hf
  Hf94     1.0000 0.69695  0.86990  0.76724  Biso   1.000  Hf
