data_image0
_cell_length_a       10.0865
_cell_length_b       10.3124
_cell_length_c       10.4748
_cell_angle_alpha    90
_cell_angle_beta     90
_cell_angle_gamma    90

_symmetry_space_group_name_H-M    "P 1"
_symmetry_int_tables_number       1

loop_
  _symmetry_equiv_pos_as_xyz
  'x, y, z'

loop_
  _atom_site_label
  _atom_site_occupancy
  _atom_site_fract_x
  _atom_site_fract_y
  _atom_site_fract_z
  _atom_site_thermal_displace_type
  _atom_site_B_iso_or_equiv
  _atom_site_type_symbol
  Hf1      1.0000 0.14789  0.99652  0.18294  Biso   1.000  Hf
  Hf2      1.0000 0.14314  0.01756  0.67084  Biso   1.000  Hf
  Hf3      1.0000 0.14722  0.52230  0.17209  Biso   1.000  Hf
  Hf4      1.0000 0.14580  0.51953  0.66873  Biso   1.000  Hf
  Hf5      1.0000 0.14306  0.22861  0.41981  Biso   1.000  Hf
  Hf6      1.0000 0.15138  0.23928  0.89631  Biso   1.000  Hf
  Hf7      1.0000 0.14869  0.72434  0.42414  Biso   1.000  Hf
  Hf8      1.0000 0.14733  0.72284  0.92129  Biso   1.000  Hf
  La1      1.0000 0.36294  0.25550  0.15695  Biso   1.000  La
  Hf9      1.0000 0.37333  0.26818  0.66546  Biso   1.000  Hf
  Hf10     1.0000 0.37239  0.76417  0.17076  Biso   1.000  Hf
  Hf11     1.0000 0.37090  0.76825  0.67254  Biso   1.000  Hf
  Hf12     1.0000 0.36880  0.47456  0.41999  Biso   1.000  Hf
  Hf13     1.0000 0.37536  0.48114  0.91804  Biso   1.000  Hf
  Hf14     1.0000 0.37488  0.97445  0.42602  Biso   1.000  Hf
  Hf15     1.0000 0.36752  0.97160  0.92114  Biso   1.000  Hf
  Hf16     1.0000 0.63594  0.01562  0.08189  Biso   1.000  Hf
  Hf17     1.0000 0.64493  0.01858  0.58053  Biso   1.000  Hf
  Hf18     1.0000 0.64663  0.51650  0.07805  Biso   1.000  Hf
  Hf19     1.0000 0.64611  0.51930  0.57956  Biso   1.000  Hf
  Hf20     1.0000 0.64306  0.22976  0.33421  Biso   1.000  Hf
  Hf21     1.0000 0.64454  0.22443  0.83324  Biso   1.000  Hf
  Hf22     1.0000 0.64687  0.72572  0.32929  Biso   1.000  Hf
  Hf23     1.0000 0.65051  0.72510  0.82869  Biso   1.000  Hf
  La2      1.0000 0.87838  0.25264  0.09343  Biso   1.000  La
  Hf24     1.0000 0.86654  0.26863  0.57975  Biso   1.000  Hf
  Hf25     1.0000 0.86449  0.76638  0.07779  Biso   1.000  Hf
  Hf26     1.0000 0.87089  0.76947  0.57810  Biso   1.000  Hf
  Hf27     1.0000 0.86949  0.48108  0.33166  Biso   1.000  Hf
  Hf28     1.0000 0.86895  0.47291  0.82813  Biso   1.000  Hf
  Hf29     1.0000 0.86614  0.97674  0.33059  Biso   1.000  Hf
  Hf30     1.0000 0.87287  0.97346  0.82761  Biso   1.000  Hf
  Hf31     1.0000 0.03678  0.15697  0.57578  Biso   1.000  Hf
  Hf32     1.0000 0.04013  0.66902  0.08513  Biso   1.000  Hf
  Hf33     1.0000 0.04085  0.66425  0.58419  Biso   1.000  Hf
  Hf34     1.0000 0.02199  0.10621  0.30237  Biso   1.000  Hf
  Hf35     1.0000 0.03589  0.08499  0.83241  Biso   1.000  Hf
  Hf36     1.0000 0.04149  0.58841  0.33638  Biso   1.000  Hf
  Hf37     1.0000 0.04289  0.57847  0.83263  Biso   1.000  Hf
  Hf38     1.0000 0.46870  0.43600  0.08230  Biso   1.000  Hf
  Hf39     1.0000 0.47279  0.41966  0.58996  Biso   1.000  Hf
  Hf40     1.0000 0.45873  0.93153  0.09555  Biso   1.000  Hf
  Hf41     1.0000 0.47735  0.91591  0.59025  Biso   1.000  Hf
  Hf42     1.0000 0.47273  0.32705  0.34957  Biso   1.000  Hf
  Hf43     1.0000 0.47110  0.32610  0.83790  Biso   1.000  Hf
  Hf44     1.0000 0.47464  0.82814  0.33721  Biso   1.000  Hf
  Hf45     1.0000 0.47457  0.83106  0.83951  Biso   1.000  Hf
  Hf46     1.0000 0.26865  0.10518  0.30509  Biso   1.000  Hf
  Hf47     1.0000 0.28453  0.12015  0.79193  Biso   1.000  Hf
  Hf48     1.0000 0.28750  0.62125  0.29485  Biso   1.000  Hf
  Hf49     1.0000 0.28459  0.62283  0.79368  Biso   1.000  Hf
  Hf50     1.0000 0.20123  0.11988  0.04118  Biso   1.000  Hf
  Hf51     1.0000 0.28149  0.12456  0.54676  Biso   1.000  Hf
  Hf52     1.0000 0.28287  0.62756  0.04382  Biso   1.000  Hf
  Hf53     1.0000 0.28460  0.62387  0.54584  Biso   1.000  Hf
  Hf54     1.0000 0.22198  0.37648  0.29818  Biso   1.000  Hf
  Hf55     1.0000 0.23899  0.37424  0.78232  Biso   1.000  Hf
  Hf56     1.0000 0.23331  0.86284  0.29629  Biso   1.000  Hf
  Hf57     1.0000 0.23196  0.87130  0.79523  Biso   1.000  Hf
  Hf58     1.0000 0.21474  0.38507  0.02632  Biso   1.000  Hf
  Hf59     1.0000 0.23112  0.37282  0.54142  Biso   1.000  Hf
  Hf60     1.0000 0.23263  0.86768  0.04511  Biso   1.000  Hf
  Hf61     1.0000 0.23557  0.87362  0.54656  Biso   1.000  Hf
  Hf62     1.0000 0.56330  0.17761  0.16075  Biso   1.000  Hf
  Hf63     1.0000 0.54287  0.16440  0.66676  Biso   1.000  Hf
  Hf64     1.0000 0.54679  0.67330  0.15984  Biso   1.000  Hf
  Hf65     1.0000 0.54360  0.66856  0.66438  Biso   1.000  Hf
  Hf66     1.0000 0.53848  0.07865  0.41691  Biso   1.000  Hf
  Hf67     1.0000 0.52501  0.08603  0.92505  Biso   1.000  Hf
  Hf68     1.0000 0.54288  0.57902  0.41440  Biso   1.000  Hf
  Hf69     1.0000 0.54831  0.58012  0.90921  Biso   1.000  Hf
  Hf70     1.0000 0.97656  0.42743  0.17145  Biso   1.000  Hf
  Hf71     1.0000 0.97537  0.41251  0.66342  Biso   1.000  Hf
  Hf72     1.0000 0.96921  0.91929  0.16107  Biso   1.000  Hf
  Hf73     1.0000 0.97824  0.91218  0.66616  Biso   1.000  Hf
  Hf74     1.0000 0.97133  0.33354  0.41710  Biso   1.000  Hf
  Hf75     1.0000 0.97962  0.32711  0.90386  Biso   1.000  Hf
  Hf76     1.0000 0.98171  0.83901  0.41795  Biso   1.000  Hf
  Hf77     1.0000 0.97699  0.82944  0.91580  Biso   1.000  Hf
  Hf78     1.0000 0.77188  0.10658  0.95157  Biso   1.000  Hf
  Hf79     1.0000 0.78130  0.12167  0.45932  Biso   1.000  Hf
  Hf80     1.0000 0.78924  0.61826  0.95460  Biso   1.000  Hf
  Hf81     1.0000 0.78426  0.62454  0.45648  Biso   1.000  Hf
  Hf82     1.0000 0.76776  0.10549  0.21704  Biso   1.000  Hf
  Hf83     1.0000 0.78200  0.12291  0.70668  Biso   1.000  Hf
  Hf84     1.0000 0.78412  0.62435  0.20585  Biso   1.000  Hf
  Hf85     1.0000 0.78559  0.62295  0.70516  Biso   1.000  Hf
  Hf86     1.0000 0.73143  0.36974  0.95285  Biso   1.000  Hf
  Hf87     1.0000 0.73243  0.37330  0.46097  Biso   1.000  Hf
  Hf88     1.0000 0.73228  0.86427  0.95623  Biso   1.000  Hf
  Hf89     1.0000 0.73354  0.87145  0.45591  Biso   1.000  Hf
  Hf90     1.0000 0.72678  0.38056  0.21615  Biso   1.000  Hf
  Hf91     1.0000 0.73069  0.37250  0.70723  Biso   1.000  Hf
  Hf92     1.0000 0.73268  0.86902  0.20655  Biso   1.000  Hf
  Hf93     1.0000 0.73537  0.87334  0.70531  Biso   1.000  Hf
