data_image0
_cell_length_a       10.2097
_cell_length_b       10.3456
_cell_length_c       10.4745
_cell_angle_alpha    90
_cell_angle_beta     80
_cell_angle_gamma    90

_symmetry_space_group_name_H-M    "P 1"
_symmetry_int_tables_number       1

loop_
  _symmetry_equiv_pos_as_xyz
  'x, y, z'

loop_
  _atom_site_label
  _atom_site_occupancy
  _atom_site_fract_x
  _atom_site_fract_y
  _atom_site_fract_z
  _atom_site_thermal_displace_type
  _atom_site_B_iso_or_equiv
  _atom_site_type_symbol
  La1      1.0000 0.12838  0.01086  0.13883  Biso   1.000  La
  Hf1      1.0000 0.13991  0.02081  0.64165  Biso   1.000  Hf
  Hf2      1.0000 0.13373  0.52000  0.14649  Biso   1.000  Hf
  Hf3      1.0000 0.12783  0.52148  0.64635  Biso   1.000  Hf
  Hf4      1.0000 0.63514  0.02115  0.14950  Biso   1.000  Hf
  Hf5      1.0000 0.63093  0.02230  0.64839  Biso   1.000  Hf
  Hf6      1.0000 0.63138  0.51991  0.14728  Biso   1.000  Hf
  Hf7      1.0000 0.63013  0.52281  0.64796  Biso   1.000  Hf
  Hf8      1.0000 0.13053  0.22781  0.39870  Biso   1.000  Hf
  Hf9      1.0000 0.12709  0.23938  0.89817  Biso   1.000  Hf
  Hf10     1.0000 0.12930  0.72635  0.39597  Biso   1.000  Hf
  Hf11     1.0000 0.12814  0.72602  0.89627  Biso   1.000  Hf
  Hf12     1.0000 0.63162  0.23047  0.39802  Biso   1.000  Hf
  Hf13     1.0000 0.62149  0.23418  0.89968  Biso   1.000  Hf
  Hf14     1.0000 0.62679  0.72744  0.39854  Biso   1.000  Hf
  Hf15     1.0000 0.62728  0.73210  0.89576  Biso   1.000  Hf
  Hf16     1.0000 0.35402  0.26899  0.10623  Biso   1.000  Hf
  Hf17     1.0000 0.35451  0.27364  0.60345  Biso   1.000  Hf
  Hf18     1.0000 0.35981  0.76691  0.10230  Biso   1.000  Hf
  Hf19     1.0000 0.34969  0.77060  0.60396  Biso   1.000  Hf
  Hf20     1.0000 0.85315  0.27506  0.10571  Biso   1.000  Hf
  Hf21     1.0000 0.85200  0.27473  0.60601  Biso   1.000  Hf
  Hf22     1.0000 0.85421  0.76170  0.10382  Biso   1.000  Hf
  Hf23     1.0000 0.85077  0.77327  0.60329  Biso   1.000  Hf
  Hf24     1.0000 0.35116  0.47827  0.35402  Biso   1.000  Hf
  Hf25     1.0000 0.34991  0.48117  0.85471  Biso   1.000  Hf
  Hf26     1.0000 0.35036  0.97878  0.35359  Biso   1.000  Hf
  Hf27     1.0000 0.34616  0.97993  0.85249  Biso   1.000  Hf
  Hf28     1.0000 0.85347  0.47960  0.35563  Biso   1.000  Hf
  Hf29     1.0000 0.84757  0.48108  0.85550  Biso   1.000  Hf
  Hf30     1.0000 0.84139  0.98028  0.36033  Biso   1.000  Hf
  La2      1.0000 0.85292  0.99022  0.86316  Biso   1.000  La
  Hf31     1.0000 0.03031  0.19164  0.07703  Biso   1.000  Hf
  Hf32     1.0000 0.02847  0.17369  0.59031  Biso   1.000  Hf
  Hf33     1.0000 0.03897  0.67809  0.09148  Biso   1.000  Hf
  Hf34     1.0000 0.02571  0.67007  0.58197  Biso   1.000  Hf
  Hf35     1.0000 0.52335  0.16498  0.08066  Biso   1.000  Hf
  Hf36     1.0000 0.52606  0.16837  0.57966  Biso   1.000  Hf
  Hf37     1.0000 0.53031  0.66400  0.07740  Biso   1.000  Hf
  Hf38     1.0000 0.52356  0.66760  0.58113  Biso   1.000  Hf
  Hf39     1.0000 0.01977  0.08221  0.34718  Biso   1.000  Hf
  Hf40     1.0000 0.06562  0.07062  0.83543  Biso   1.000  Hf
  Hf41     1.0000 0.02916  0.57692  0.33389  Biso   1.000  Hf
  Hf42     1.0000 0.02797  0.57164  0.83521  Biso   1.000  Hf
  Hf43     1.0000 0.52965  0.08290  0.33115  Biso   1.000  Hf
  Hf44     1.0000 0.52569  0.08224  0.83203  Biso   1.000  Hf
  Hf45     1.0000 0.52406  0.58274  0.32965  Biso   1.000  Hf
  Hf46     1.0000 0.52246  0.58537  0.82952  Biso   1.000  Hf
  Hf47     1.0000 0.45884  0.41571  0.17246  Biso   1.000  Hf
  Hf48     1.0000 0.45724  0.41834  0.67233  Biso   1.000  Hf
  Hf49     1.0000 0.45561  0.91885  0.16996  Biso   1.000  Hf
  Hf50     1.0000 0.45165  0.91818  0.67083  Biso   1.000  Hf
  Hf51     1.0000 0.95333  0.42943  0.16678  Biso   1.000  Hf
  Hf52     1.0000 0.95214  0.42417  0.66809  Biso   1.000  Hf
  Hf53     1.0000 0.91568  0.93046  0.16656  Biso   1.000  Hf
  Hf54     1.0000 0.96153  0.91887  0.65481  Biso   1.000  Hf
  Hf55     1.0000 0.45774  0.33349  0.42085  Biso   1.000  Hf
  Hf56     1.0000 0.45099  0.33708  0.92458  Biso   1.000  Hf
  Hf57     1.0000 0.45524  0.83272  0.42233  Biso   1.000  Hf
  Hf58     1.0000 0.45795  0.83611  0.92133  Biso   1.000  Hf
  Hf59     1.0000 0.95559  0.33102  0.42001  Biso   1.000  Hf
  Hf60     1.0000 0.94233  0.32300  0.91050  Biso   1.000  Hf
  Hf61     1.0000 0.95282  0.82740  0.41168  Biso   1.000  Hf
  Hf62     1.0000 0.95099  0.80944  0.92495  Biso   1.000  Hf
  Hf63     1.0000 0.27435  0.13386  0.24920  Biso   1.000  Hf
  Hf64     1.0000 0.28063  0.12928  0.73329  Biso   1.000  Hf
  Hf65     1.0000 0.26987  0.62356  0.23978  Biso   1.000  Hf
  Hf66     1.0000 0.26527  0.62770  0.73985  Biso   1.000  Hf
  Hf67     1.0000 0.76899  0.13357  0.24712  Biso   1.000  Hf
  Hf68     1.0000 0.75502  0.14263  0.73919  Biso   1.000  Hf
  Hf69     1.0000 0.76592  0.62857  0.24353  Biso   1.000  Hf
  Hf70     1.0000 0.76692  0.63038  0.74177  Biso   1.000  Hf
  Hf71     1.0000 0.26873  0.12139  0.49099  Biso   1.000  Hf
  Hf72     1.0000 0.27036  0.13019  0.98216  Biso   1.000  Hf
  Hf73     1.0000 0.26577  0.62084  0.49068  Biso   1.000  Hf
  Hf74     1.0000 0.26217  0.61773  0.99220  Biso   1.000  Hf
  Hf75     1.0000 0.76542  0.12246  0.49424  Biso   1.000  Hf
  Hf76     1.0000 0.75761  0.13467  0.00591  Biso   1.000  Hf
  Hf77     1.0000 0.76584  0.62133  0.49188  Biso   1.000  Hf
  Hf78     1.0000 0.75943  0.61979  0.99344  Biso   1.000  Hf
  Hf79     1.0000 0.22187  0.38129  0.00855  Biso   1.000  Hf
  Hf80     1.0000 0.21546  0.37975  0.51010  Biso   1.000  Hf
  Hf81     1.0000 0.22368  0.86641  0.99607  Biso   1.000  Hf
  Hf82     1.0000 0.21588  0.87862  0.50775  Biso   1.000  Hf
  Hf83     1.0000 0.71912  0.38335  0.00979  Biso   1.000  Hf
  Hf84     1.0000 0.71552  0.38024  0.51130  Biso   1.000  Hf
  Hf85     1.0000 0.71094  0.87089  0.01983  Biso   1.000  Hf
  Hf86     1.0000 0.71257  0.87969  0.51099  Biso   1.000  Hf
  Hf87     1.0000 0.21438  0.37070  0.26023  Biso   1.000  Hf
  Hf88     1.0000 0.21538  0.37252  0.75845  Biso   1.000  Hf
  Hf89     1.0000 0.22628  0.85845  0.26279  Biso   1.000  Hf
  Hf90     1.0000 0.21231  0.86751  0.75487  Biso   1.000  Hf
  Hf91     1.0000 0.71603  0.37338  0.26214  Biso   1.000  Hf
  Hf92     1.0000 0.71142  0.37752  0.76222  Biso   1.000  Hf
  Hf93     1.0000 0.70066  0.87181  0.26869  Biso   1.000  Hf
  Hf94     1.0000 0.70694  0.86722  0.75278  Biso   1.000  Hf
