data_image0
_cell_length_a       10.0551
_cell_length_b       10.404
_cell_length_c       10.1025
_cell_angle_alpha    90
_cell_angle_beta     90
_cell_angle_gamma    90

_symmetry_space_group_name_H-M    "P 1"
_symmetry_int_tables_number       1

loop_
  _symmetry_equiv_pos_as_xyz
  'x, y, z'

loop_
  _atom_site_label
  _atom_site_occupancy
  _atom_site_fract_x
  _atom_site_fract_y
  _atom_site_fract_z
  _atom_site_thermal_displace_type
  _atom_site_B_iso_or_equiv
  _atom_site_type_symbol
  La1      1.0000 0.12327  0.00821  0.12204  Biso   1.000  La
  Hf1      1.0000 0.13431  0.01514  0.62612  Biso   1.000  Hf
  Hf2      1.0000 0.13616  0.51745  0.12127  Biso   1.000  Hf
  Hf3      1.0000 0.13970  0.51649  0.63198  Biso   1.000  Hf
  Hf4      1.0000 0.63340  0.01604  0.12572  Biso   1.000  Hf
  Hf5      1.0000 0.63465  0.01716  0.62523  Biso   1.000  Hf
  Hf6      1.0000 0.62922  0.51382  0.12294  Biso   1.000  Hf
  Hf7      1.0000 0.63473  0.51427  0.62497  Biso   1.000  Hf
  Hf8      1.0000 0.13818  0.23282  0.37844  Biso   1.000  Hf
  Hf9      1.0000 0.13583  0.23367  0.86916  Biso   1.000  Hf
  Hf10     1.0000 0.13975  0.73433  0.37976  Biso   1.000  Hf
  Hf11     1.0000 0.13663  0.73403  0.87522  Biso   1.000  Hf
  Hf12     1.0000 0.63467  0.23391  0.37580  Biso   1.000  Hf
  Hf13     1.0000 0.63470  0.23344  0.87456  Biso   1.000  Hf
  Hf14     1.0000 0.62842  0.73465  0.37765  Biso   1.000  Hf
  Hf15     1.0000 0.63641  0.73085  0.87416  Biso   1.000  Hf
  Hf16     1.0000 0.36321  0.26582  0.12634  Biso   1.000  Hf
  Hf17     1.0000 0.36832  0.26506  0.62299  Biso   1.000  Hf
  Hf18     1.0000 0.36819  0.76424  0.12362  Biso   1.000  Hf
  Hf19     1.0000 0.36879  0.76736  0.62794  Biso   1.000  Hf
  Hf20     1.0000 0.86091  0.26564  0.12077  Biso   1.000  Hf
  Hf21     1.0000 0.86554  0.26622  0.62700  Biso   1.000  Hf
  Hf22     1.0000 0.85832  0.76462  0.12838  Biso   1.000  Hf
  Hf23     1.0000 0.86658  0.76511  0.62675  Biso   1.000  Hf
  Hf24     1.0000 0.36488  0.48390  0.37503  Biso   1.000  Hf
  Hf25     1.0000 0.36783  0.48097  0.87581  Biso   1.000  Hf
  Hf26     1.0000 0.36688  0.98501  0.37500  Biso   1.000  Hf
  Hf27     1.0000 0.37046  0.98454  0.87333  Biso   1.000  Hf
  La2      1.0000 0.87678  0.49240  0.37045  Biso   1.000  La
  Hf28     1.0000 0.86763  0.48226  0.87679  Biso   1.000  Hf
  Hf29     1.0000 0.86146  0.98264  0.38099  Biso   1.000  Hf
  Hf30     1.0000 0.86364  0.98104  0.87247  Biso   1.000  Hf
  Hf31     1.0000 0.02380  0.19626  0.20838  Biso   1.000  Hf
  Hf32     1.0000 0.03975  0.18482  0.68684  Biso   1.000  Hf
  Hf33     1.0000 0.02707  0.67771  0.20599  Biso   1.000  Hf
  Hf34     1.0000 0.03639  0.68436  0.69855  Biso   1.000  Hf
  Hf35     1.0000 0.53454  0.18276  0.19189  Biso   1.000  Hf
  Hf36     1.0000 0.53640  0.18376  0.69552  Biso   1.000  Hf
  Hf37     1.0000 0.52651  0.67803  0.19998  Biso   1.000  Hf
  Hf38     1.0000 0.53484  0.68151  0.69825  Biso   1.000  Hf
  Hf39     1.0000 0.03741  0.06016  0.44169  Biso   1.000  Hf
  Hf40     1.0000 0.03137  0.07178  0.91833  Biso   1.000  Hf
  Hf41     1.0000 0.06094  0.57043  0.45742  Biso   1.000  Hf
  Hf42     1.0000 0.03808  0.56857  0.94049  Biso   1.000  Hf
  Hf43     1.0000 0.53508  0.06735  0.44700  Biso   1.000  Hf
  Hf44     1.0000 0.53829  0.06600  0.94328  Biso   1.000  Hf
  Hf45     1.0000 0.53488  0.56312  0.44499  Biso   1.000  Hf
  Hf46     1.0000 0.53361  0.56696  0.94658  Biso   1.000  Hf
  Hf47     1.0000 0.46053  0.43265  0.19379  Biso   1.000  Hf
  Hf48     1.0000 0.46661  0.43197  0.69643  Biso   1.000  Hf
  Hf49     1.0000 0.46433  0.93489  0.19445  Biso   1.000  Hf
  Hf50     1.0000 0.46799  0.93345  0.69653  Biso   1.000  Hf
  Hf51     1.0000 0.96148  0.43342  0.15906  Biso   1.000  Hf
  Hf52     1.0000 0.96749  0.43476  0.69479  Biso   1.000  Hf
  Hf53     1.0000 0.94075  0.92492  0.20731  Biso   1.000  Hf
  Hf54     1.0000 0.96348  0.93274  0.69344  Biso   1.000  Hf
  Hf55     1.0000 0.46209  0.31424  0.44145  Biso   1.000  Hf
  Hf56     1.0000 0.46770  0.31727  0.94604  Biso   1.000  Hf
  Hf57     1.0000 0.46602  0.82008  0.45057  Biso   1.000  Hf
  Hf58     1.0000 0.47430  0.81798  0.94728  Biso   1.000  Hf
  Hf59     1.0000 0.97331  0.30620  0.45802  Biso   1.000  Hf
  Hf60     1.0000 0.96238  0.31176  0.93498  Biso   1.000  Hf
  Hf61     1.0000 0.96439  0.81175  0.44852  Biso   1.000  Hf
  Hf62     1.0000 0.97412  0.82302  0.95700  Biso   1.000  Hf
  Hf63     1.0000 0.27976  0.12678  0.25539  Biso   1.000  Hf
  Hf64     1.0000 0.27243  0.11605  0.74633  Biso   1.000  Hf
  Hf65     1.0000 0.26695  0.61532  0.25001  Biso   1.000  Hf
  Hf66     1.0000 0.27308  0.61816  0.75252  Biso   1.000  Hf
  Hf67     1.0000 0.76574  0.11565  0.25124  Biso   1.000  Hf
  Hf68     1.0000 0.77011  0.11631  0.74888  Biso   1.000  Hf
  Hf69     1.0000 0.75389  0.62666  0.24005  Biso   1.000  Hf
  Hf70     1.0000 0.77216  0.61437  0.74892  Biso   1.000  Hf
  Hf71     1.0000 0.27009  0.13007  0.50170  Biso   1.000  Hf
  Hf72     1.0000 0.27619  0.13710  0.99067  Biso   1.000  Hf
  Hf73     1.0000 0.28274  0.63436  0.50171  Biso   1.000  Hf
  Hf74     1.0000 0.27079  0.63048  0.00018  Biso   1.000  Hf
  Hf75     1.0000 0.77041  0.13206  0.50069  Biso   1.000  Hf
  Hf76     1.0000 0.77078  0.12932  0.99781  Biso   1.000  Hf
  Hf77     1.0000 0.75719  0.64286  0.50638  Biso   1.000  Hf
  Hf78     1.0000 0.77048  0.62966  0.99568  Biso   1.000  Hf
  Hf79     1.0000 0.23438  0.38316  0.50169  Biso   1.000  Hf
  Hf80     1.0000 0.23021  0.38172  0.99766  Biso   1.000  Hf
  Hf81     1.0000 0.23096  0.88336  0.49987  Biso   1.000  Hf
  Hf82     1.0000 0.24450  0.87241  0.98879  Biso   1.000  Hf
  Hf83     1.0000 0.72106  0.37299  0.50529  Biso   1.000  Hf
  Hf84     1.0000 0.72759  0.38159  0.99586  Biso   1.000  Hf
  Hf85     1.0000 0.72957  0.88434  0.50214  Biso   1.000  Hf
  Hf86     1.0000 0.73197  0.88038  0.00044  Biso   1.000  Hf
  Hf87     1.0000 0.22351  0.36995  0.24920  Biso   1.000  Hf
  Hf88     1.0000 0.23496  0.36608  0.74847  Biso   1.000  Hf
  Hf89     1.0000 0.24360  0.85683  0.25543  Biso   1.000  Hf
  Hf90     1.0000 0.23080  0.86770  0.74637  Biso   1.000  Hf
  Hf91     1.0000 0.72200  0.36242  0.24114  Biso   1.000  Hf
  Hf92     1.0000 0.73226  0.36774  0.75120  Biso   1.000  Hf
  Hf93     1.0000 0.71602  0.86828  0.25198  Biso   1.000  Hf
  Hf94     1.0000 0.73125  0.86531  0.75021  Biso   1.000  Hf
