data_image0
_cell_length_a       10.1108
_cell_length_b       10.2781
_cell_length_c       10.4945
_cell_angle_alpha    90
_cell_angle_beta     90
_cell_angle_gamma    90

_symmetry_space_group_name_H-M    "P 1"
_symmetry_int_tables_number       1

loop_
  _symmetry_equiv_pos_as_xyz
  'x, y, z'

loop_
  _atom_site_label
  _atom_site_occupancy
  _atom_site_fract_x
  _atom_site_fract_y
  _atom_site_fract_z
  _atom_site_thermal_displace_type
  _atom_site_B_iso_or_equiv
  _atom_site_type_symbol
  La1      1.0000 0.11547  0.00221  0.15317  Biso   1.000  La
  La2      1.0000 0.10826  0.99974  0.65308  Biso   1.000  La
  Hf1      1.0000 0.13616  0.52128  0.16665  Biso   1.000  Hf
  Hf2      1.0000 0.12898  0.51883  0.66661  Biso   1.000  Hf
  Hf3      1.0000 0.13336  0.23014  0.41459  Biso   1.000  Hf
  Hf4      1.0000 0.12617  0.22767  0.91452  Biso   1.000  Hf
  Hf5      1.0000 0.12993  0.73053  0.41763  Biso   1.000  Hf
  Hf6      1.0000 0.12268  0.72813  0.91757  Biso   1.000  Hf
  Hf7      1.0000 0.35401  0.26600  0.16820  Biso   1.000  Hf
  Hf8      1.0000 0.34682  0.26355  0.66816  Biso   1.000  Hf
  Hf9      1.0000 0.36185  0.76836  0.16821  Biso   1.000  Hf
  Hf10     1.0000 0.35466  0.76591  0.66817  Biso   1.000  Hf
  Hf11     1.0000 0.35260  0.47629  0.41856  Biso   1.000  Hf
  Hf12     1.0000 0.34538  0.47384  0.91850  Biso   1.000  Hf
  Hf13     1.0000 0.35649  0.97943  0.41491  Biso   1.000  Hf
  Hf14     1.0000 0.34928  0.97697  0.91484  Biso   1.000  Hf
  Hf15     1.0000 0.63733  0.02171  0.08104  Biso   1.000  Hf
  Hf16     1.0000 0.63016  0.01925  0.58101  Biso   1.000  Hf
  Hf17     1.0000 0.63427  0.51837  0.07597  Biso   1.000  Hf
  Hf18     1.0000 0.62709  0.51592  0.57593  Biso   1.000  Hf
  Hf19     1.0000 0.63336  0.22854  0.32706  Biso   1.000  Hf
  Hf20     1.0000 0.62617  0.22608  0.82701  Biso   1.000  Hf
  Hf21     1.0000 0.63263  0.72668  0.32798  Biso   1.000  Hf
  Hf22     1.0000 0.62545  0.72422  0.82793  Biso   1.000  Hf
  Hf23     1.0000 0.85694  0.27478  0.07597  Biso   1.000  Hf
  Hf24     1.0000 0.84976  0.27234  0.57591  Biso   1.000  Hf
  Hf25     1.0000 0.85640  0.76678  0.08660  Biso   1.000  Hf
  Hf26     1.0000 0.84922  0.76432  0.58653  Biso   1.000  Hf
  Hf27     1.0000 0.85502  0.48039  0.32685  Biso   1.000  Hf
  Hf28     1.0000 0.84785  0.47794  0.82681  Biso   1.000  Hf
  Hf29     1.0000 0.85023  0.97527  0.34100  Biso   1.000  Hf
  Hf30     1.0000 0.84304  0.97283  0.84096  Biso   1.000  Hf
  Hf31     1.0000 0.03276  0.19044  0.08143  Biso   1.000  Hf
  Hf32     1.0000 0.02557  0.18800  0.58141  Biso   1.000  Hf
  Hf33     1.0000 0.02664  0.65606  0.07122  Biso   1.000  Hf
  Hf34     1.0000 0.01947  0.65362  0.57118  Biso   1.000  Hf
  Hf35     1.0000 0.01564  0.09006  0.34305  Biso   1.000  Hf
  Hf36     1.0000 0.00847  0.08759  0.84297  Biso   1.000  Hf
  Hf37     1.0000 0.02242  0.59307  0.32404  Biso   1.000  Hf
  Hf38     1.0000 0.01525  0.59061  0.82399  Biso   1.000  Hf
  Hf39     1.0000 0.46511  0.41192  0.07949  Biso   1.000  Hf
  Hf40     1.0000 0.45794  0.40947  0.57945  Biso   1.000  Hf
  Hf41     1.0000 0.46954  0.91510  0.08074  Biso   1.000  Hf
  Hf42     1.0000 0.46236  0.91265  0.58070  Biso   1.000  Hf
  Hf43     1.0000 0.46278  0.33490  0.32952  Biso   1.000  Hf
  Hf44     1.0000 0.45559  0.33246  0.82947  Biso   1.000  Hf
  Hf45     1.0000 0.46879  0.83707  0.32794  Biso   1.000  Hf
  Hf46     1.0000 0.46162  0.83463  0.82789  Biso   1.000  Hf
  Hf47     1.0000 0.27333  0.12532  0.29193  Biso   1.000  Hf
  Hf48     1.0000 0.26615  0.12287  0.79186  Biso   1.000  Hf
  Hf49     1.0000 0.27019  0.62038  0.29046  Biso   1.000  Hf
  Hf50     1.0000 0.26299  0.61794  0.79040  Biso   1.000  Hf
  Hf51     1.0000 0.28217  0.13205  0.03158  Biso   1.000  Hf
  Hf52     1.0000 0.27498  0.12960  0.53152  Biso   1.000  Hf
  Hf53     1.0000 0.27005  0.62306  0.03985  Biso   1.000  Hf
  Hf54     1.0000 0.26290  0.62060  0.53980  Biso   1.000  Hf
  Hf55     1.0000 0.21790  0.37354  0.29077  Biso   1.000  Hf
  Hf56     1.0000 0.21070  0.37110  0.79071  Biso   1.000  Hf
  Hf57     1.0000 0.22912  0.86428  0.29343  Biso   1.000  Hf
  Hf58     1.0000 0.22192  0.86183  0.79335  Biso   1.000  Hf
  Hf59     1.0000 0.22235  0.37810  0.04169  Biso   1.000  Hf
  Hf60     1.0000 0.21518  0.37564  0.54164  Biso   1.000  Hf
  Hf61     1.0000 0.24426  0.86229  0.03194  Biso   1.000  Hf
  Hf62     1.0000 0.23709  0.85983  0.53187  Biso   1.000  Hf
  Hf63     1.0000 0.53110  0.16540  0.16468  Biso   1.000  Hf
  Hf64     1.0000 0.52392  0.16295  0.66464  Biso   1.000  Hf
  Hf65     1.0000 0.52875  0.66015  0.16638  Biso   1.000  Hf
  Hf66     1.0000 0.52157  0.65770  0.66633  Biso   1.000  Hf
  Hf67     1.0000 0.53137  0.08199  0.41288  Biso   1.000  Hf
  Hf68     1.0000 0.52417  0.07954  0.91283  Biso   1.000  Hf
  Hf69     1.0000 0.52312  0.58529  0.41642  Biso   1.000  Hf
  Hf70     1.0000 0.51591  0.58285  0.91636  Biso   1.000  Hf
  Hf71     1.0000 0.96128  0.41950  0.16519  Biso   1.000  Hf
  Hf72     1.0000 0.95409  0.41705  0.66514  Biso   1.000  Hf
  Hf73     1.0000 0.95706  0.85583  0.22741  Biso   1.000  Hf
  Hf74     1.0000 0.94994  0.85328  0.72743  Biso   1.000  Hf
  Hf75     1.0000 0.95965  0.34062  0.41306  Biso   1.000  Hf
  Hf76     1.0000 0.95246  0.33816  0.91299  Biso   1.000  Hf
  Hf77     1.0000 0.97464  0.86949  0.46922  Biso   1.000  Hf
  Hf78     1.0000 0.96742  0.86699  0.96913  Biso   1.000  Hf
  Hf79     1.0000 0.75895  0.12213  0.96070  Biso   1.000  Hf
  Hf80     1.0000 0.76612  0.12457  0.46075  Biso   1.000  Hf
  Hf81     1.0000 0.76060  0.61936  0.95534  Biso   1.000  Hf
  Hf82     1.0000 0.76779  0.62182  0.45537  Biso   1.000  Hf
  Hf83     1.0000 0.77716  0.12357  0.20890  Biso   1.000  Hf
  Hf84     1.0000 0.76999  0.12111  0.70883  Biso   1.000  Hf
  Hf85     1.0000 0.76657  0.62323  0.20519  Biso   1.000  Hf
  Hf86     1.0000 0.75940  0.62077  0.70513  Biso   1.000  Hf
  Hf87     1.0000 0.70831  0.37164  0.95155  Biso   1.000  Hf
  Hf88     1.0000 0.71550  0.37410  0.45159  Biso   1.000  Hf
  Hf89     1.0000 0.71250  0.86565  0.95860  Biso   1.000  Hf
  Hf90     1.0000 0.71967  0.86812  0.45865  Biso   1.000  Hf
  Hf91     1.0000 0.72028  0.37488  0.20292  Biso   1.000  Hf
  Hf92     1.0000 0.71310  0.37242  0.70286  Biso   1.000  Hf
  Hf93     1.0000 0.71454  0.87834  0.20663  Biso   1.000  Hf
  Hf94     1.0000 0.70738  0.87588  0.70657  Biso   1.000  Hf
