data_image0
_cell_length_a       10.1464
_cell_length_b       10.335
_cell_length_c       10.4285
_cell_angle_alpha    90
_cell_angle_beta     80
_cell_angle_gamma    90

_symmetry_space_group_name_H-M    "P 1"
_symmetry_int_tables_number       1

loop_
  _symmetry_equiv_pos_as_xyz
  'x, y, z'

loop_
  _atom_site_label
  _atom_site_occupancy
  _atom_site_fract_x
  _atom_site_fract_y
  _atom_site_fract_z
  _atom_site_thermal_displace_type
  _atom_site_B_iso_or_equiv
  _atom_site_type_symbol
  La1      1.0000 0.13298  0.01458  0.13831  Biso   1.000  La
  Hf1      1.0000 0.13219  0.02329  0.64825  Biso   1.000  Hf
  Hf2      1.0000 0.13494  0.52087  0.14541  Biso   1.000  Hf
  Hf3      1.0000 0.12900  0.52365  0.64677  Biso   1.000  Hf
  Hf4      1.0000 0.63822  0.01987  0.14712  Biso   1.000  Hf
  Hf5      1.0000 0.63484  0.02506  0.64677  Biso   1.000  Hf
  Hf6      1.0000 0.63837  0.52162  0.14756  Biso   1.000  Hf
  Hf7      1.0000 0.62975  0.52300  0.64605  Biso   1.000  Hf
  Hf8      1.0000 0.13351  0.22936  0.39851  Biso   1.000  Hf
  Hf9      1.0000 0.11979  0.23989  0.89185  Biso   1.000  Hf
  Hf10     1.0000 0.13161  0.72924  0.39568  Biso   1.000  Hf
  Hf11     1.0000 0.12784  0.73013  0.89598  Biso   1.000  Hf
  Hf12     1.0000 0.63197  0.23088  0.39737  Biso   1.000  Hf
  Hf13     1.0000 0.62873  0.23108  0.89822  Biso   1.000  Hf
  Hf14     1.0000 0.62965  0.72927  0.39761  Biso   1.000  Hf
  Hf15     1.0000 0.63086  0.73032  0.89558  Biso   1.000  Hf
  Hf16     1.0000 0.36384  0.27832  0.10974  Biso   1.000  Hf
  Hf17     1.0000 0.35355  0.27241  0.60602  Biso   1.000  Hf
  Hf18     1.0000 0.36342  0.76761  0.10266  Biso   1.000  Hf
  Hf19     1.0000 0.35011  0.77120  0.60188  Biso   1.000  Hf
  Hf20     1.0000 0.85728  0.27357  0.10392  Biso   1.000  Hf
  Hf21     1.0000 0.85492  0.27448  0.60583  Biso   1.000  Hf
  Hf22     1.0000 0.85443  0.76917  0.10529  Biso   1.000  Hf
  Hf23     1.0000 0.85377  0.77417  0.60396  Biso   1.000  Hf
  Hf24     1.0000 0.35386  0.48079  0.35655  Biso   1.000  Hf
  Hf25     1.0000 0.35217  0.48046  0.85510  Biso   1.000  Hf
  Hf26     1.0000 0.35463  0.98034  0.35438  Biso   1.000  Hf
  Hf27     1.0000 0.35729  0.97217  0.84439  Biso   1.000  Hf
  Hf28     1.0000 0.85600  0.48033  0.35574  Biso   1.000  Hf
  Hf29     1.0000 0.84755  0.48388  0.85331  Biso   1.000  Hf
  Hf30     1.0000 0.84847  0.98101  0.35903  Biso   1.000  Hf
  Hf31     1.0000 0.84932  0.98095  0.85694  Biso   1.000  Hf
  Hf32     1.0000 0.03860  0.19475  0.07609  Biso   1.000  Hf
  Hf33     1.0000 0.03254  0.17892  0.59057  Biso   1.000  Hf
  Hf34     1.0000 0.03735  0.67826  0.08458  Biso   1.000  Hf
  Hf35     1.0000 0.02913  0.67546  0.58405  Biso   1.000  Hf
  Hf36     1.0000 0.53410  0.16962  0.08119  Biso   1.000  Hf
  Hf37     1.0000 0.52779  0.17083  0.58291  Biso   1.000  Hf
  Hf38     1.0000 0.53701  0.66880  0.08082  Biso   1.000  Hf
  Hf39     1.0000 0.52574  0.67058  0.58289  Biso   1.000  Hf
  Hf40     1.0000 0.02428  0.08211  0.34864  Biso   1.000  Hf
  Hf41     1.0000 0.02994  0.07793  0.83801  Biso   1.000  Hf
  Hf42     1.0000 0.03162  0.57953  0.33174  Biso   1.000  Hf
  Hf43     1.0000 0.02576  0.57915  0.83440  Biso   1.000  Hf
  Hf44     1.0000 0.53380  0.07985  0.33249  Biso   1.000  Hf
  Hf45     1.0000 0.52709  0.08265  0.83166  Biso   1.000  Hf
  Hf46     1.0000 0.52999  0.58051  0.33194  Biso   1.000  Hf
  Hf47     1.0000 0.52774  0.57984  0.83297  Biso   1.000  Hf
  Hf48     1.0000 0.46199  0.42203  0.17189  Biso   1.000  Hf
  Hf49     1.0000 0.45571  0.42089  0.67043  Biso   1.000  Hf
  Hf50     1.0000 0.45818  0.92280  0.16593  Biso   1.000  Hf
  Hf51     1.0000 0.45695  0.91916  0.66659  Biso   1.000  Hf
  Hf52     1.0000 0.95538  0.42838  0.16560  Biso   1.000  Hf
  Hf53     1.0000 0.95234  0.42801  0.66679  Biso   1.000  Hf
  Hf54     1.0000 0.92964  0.92620  0.17278  Biso   1.000  Hf
  Hf55     1.0000 0.95298  0.92563  0.66899  Biso   1.000  Hf
  Hf56     1.0000 0.45667  0.33082  0.42040  Biso   1.000  Hf
  Hf57     1.0000 0.45241  0.33072  0.92199  Biso   1.000  Hf
  Hf58     1.0000 0.45488  0.83042  0.42021  Biso   1.000  Hf
  Hf59     1.0000 0.46148  0.83080  0.91713  Biso   1.000  Hf
  Hf60     1.0000 0.95808  0.33179  0.41997  Biso   1.000  Hf
  Hf61     1.0000 0.94383  0.32997  0.91064  Biso   1.000  Hf
  Hf62     1.0000 0.95530  0.82953  0.41689  Biso   1.000  Hf
  Hf63     1.0000 0.95295  0.83214  0.92083  Biso   1.000  Hf
  Hf64     1.0000 0.28138  0.13814  0.24586  Biso   1.000  Hf
  Hf65     1.0000 0.26892  0.13241  0.74988  Biso   1.000  Hf
  Hf66     1.0000 0.27308  0.62552  0.23923  Biso   1.000  Hf
  Hf67     1.0000 0.26660  0.63087  0.74163  Biso   1.000  Hf
  Hf68     1.0000 0.77200  0.13333  0.24288  Biso   1.000  Hf
  Hf69     1.0000 0.76898  0.13179  0.74347  Biso   1.000  Hf
  Hf70     1.0000 0.77106  0.63017  0.24260  Biso   1.000  Hf
  Hf71     1.0000 0.76694  0.63219  0.74039  Biso   1.000  Hf
  Hf72     1.0000 0.27044  0.12165  0.49551  Biso   1.000  Hf
  Hf73     1.0000 0.26783  0.62263  0.49120  Biso   1.000  Hf
  Hf74     1.0000 0.26396  0.61945  0.99175  Biso   1.000  Hf
  Hf75     1.0000 0.76782  0.12472  0.49456  Biso   1.000  Hf
  Hf76     1.0000 0.76525  0.12348  0.99352  Biso   1.000  Hf
  Hf77     1.0000 0.76870  0.62278  0.49184  Biso   1.000  Hf
  Hf78     1.0000 0.76568  0.62273  0.99248  Biso   1.000  Hf
  Hf79     1.0000 0.22494  0.37506  0.00802  Biso   1.000  Hf
  Hf80     1.0000 0.21711  0.38194  0.51099  Biso   1.000  Hf
  Hf81     1.0000 0.22900  0.87246  0.99364  Biso   1.000  Hf
  Hf82     1.0000 0.21395  0.88231  0.50937  Biso   1.000  Hf
  Hf83     1.0000 0.71974  0.37996  0.00939  Biso   1.000  Hf
  Hf84     1.0000 0.71663  0.38137  0.51029  Biso   1.000  Hf
  Hf85     1.0000 0.72149  0.87775  0.00840  Biso   1.000  Hf
  Hf86     1.0000 0.71484  0.88160  0.51172  Biso   1.000  Hf
  Hf87     1.0000 0.21770  0.37441  0.26050  Biso   1.000  Hf
  Hf88     1.0000 0.21400  0.37613  0.75869  Biso   1.000  Hf
  Hf89     1.0000 0.22926  0.86041  0.26249  Biso   1.000  Hf
  Hf90     1.0000 0.21319  0.87105  0.75453  Biso   1.000  Hf
  Hf91     1.0000 0.71873  0.37284  0.26095  Biso   1.000  Hf
  Hf92     1.0000 0.71334  0.37251  0.75987  Biso   1.000  Hf
  Hf93     1.0000 0.70458  0.86943  0.26337  Biso   1.000  Hf
  Hf94     1.0000 0.71516  0.87322  0.75980  Biso   1.000  Hf
