data_image0
_cell_length_a       10.1593
_cell_length_b       10.3073
_cell_length_c       10.4546
_cell_angle_alpha    90
_cell_angle_beta     80
_cell_angle_gamma    90

_symmetry_space_group_name_H-M    "P 1"
_symmetry_int_tables_number       1

loop_
  _symmetry_equiv_pos_as_xyz
  'x, y, z'

loop_
  _atom_site_label
  _atom_site_occupancy
  _atom_site_fract_x
  _atom_site_fract_y
  _atom_site_fract_z
  _atom_site_thermal_displace_type
  _atom_site_B_iso_or_equiv
  _atom_site_type_symbol
  La1      1.0000 0.13306  0.01111  0.14189  Biso   1.000  La
  Hf1      1.0000 0.13096  0.02180  0.64833  Biso   1.000  Hf
  Hf2      1.0000 0.13483  0.51890  0.14568  Biso   1.000  Hf
  Hf3      1.0000 0.13145  0.52099  0.64652  Biso   1.000  Hf
  Hf4      1.0000 0.64907  0.02384  0.14609  Biso   1.000  Hf
  Hf5      1.0000 0.63294  0.02177  0.64739  Biso   1.000  Hf
  Hf6      1.0000 0.63601  0.51837  0.14736  Biso   1.000  Hf
  Hf7      1.0000 0.63178  0.52223  0.64660  Biso   1.000  Hf
  Hf8      1.0000 0.13236  0.22805  0.39846  Biso   1.000  Hf
  Hf9      1.0000 0.12927  0.23188  0.89572  Biso   1.000  Hf
  Hf10     1.0000 0.13774  0.72670  0.39562  Biso   1.000  Hf
  Hf11     1.0000 0.12947  0.72836  0.89416  Biso   1.000  Hf
  Hf12     1.0000 0.63289  0.22935  0.39693  Biso   1.000  Hf
  Hf13     1.0000 0.63035  0.22801  0.89772  Biso   1.000  Hf
  Hf14     1.0000 0.63024  0.72701  0.39669  Biso   1.000  Hf
  Hf15     1.0000 0.63279  0.73045  0.89633  Biso   1.000  Hf
  Hf16     1.0000 0.35925  0.26805  0.10403  Biso   1.000  Hf
  Hf17     1.0000 0.35438  0.27102  0.60563  Biso   1.000  Hf
  Hf18     1.0000 0.36064  0.75790  0.09768  Biso   1.000  Hf
  Hf19     1.0000 0.35349  0.77136  0.60457  Biso   1.000  Hf
  Hf20     1.0000 0.86070  0.27542  0.10244  Biso   1.000  Hf
  Hf21     1.0000 0.85487  0.27228  0.60555  Biso   1.000  Hf
  Hf22     1.0000 0.85572  0.76696  0.10489  Biso   1.000  Hf
  Hf23     1.0000 0.85679  0.77106  0.60351  Biso   1.000  Hf
  Hf24     1.0000 0.35543  0.47576  0.35353  Biso   1.000  Hf
  Hf25     1.0000 0.35510  0.47647  0.85472  Biso   1.000  Hf
  Hf26     1.0000 0.35712  0.98463  0.36264  Biso   1.000  Hf
  Hf27     1.0000 0.35563  0.97909  0.85313  Biso   1.000  Hf
  Hf28     1.0000 0.85657  0.47972  0.35589  Biso   1.000  Hf
  Hf29     1.0000 0.85123  0.47932  0.85344  Biso   1.000  Hf
  Hf30     1.0000 0.85195  0.97798  0.36011  Biso   1.000  Hf
  Hf31     1.0000 0.85374  0.97862  0.85580  Biso   1.000  Hf
  Hf32     1.0000 0.03675  0.19141  0.07836  Biso   1.000  Hf
  Hf33     1.0000 0.03104  0.17571  0.58875  Biso   1.000  Hf
  Hf34     1.0000 0.03893  0.67703  0.08340  Biso   1.000  Hf
  Hf35     1.0000 0.03233  0.67157  0.58063  Biso   1.000  Hf
  Hf36     1.0000 0.53308  0.15908  0.07793  Biso   1.000  Hf
  Hf37     1.0000 0.52641  0.16510  0.57828  Biso   1.000  Hf
  Hf38     1.0000 0.53844  0.67197  0.08338  Biso   1.000  Hf
  Hf39     1.0000 0.52696  0.66716  0.58073  Biso   1.000  Hf
  Hf40     1.0000 0.02311  0.08029  0.34949  Biso   1.000  Hf
  Hf41     1.0000 0.03007  0.07664  0.83679  Biso   1.000  Hf
  Hf42     1.0000 0.03268  0.57954  0.33223  Biso   1.000  Hf
  Hf43     1.0000 0.02715  0.57854  0.83164  Biso   1.000  Hf
  Hf44     1.0000 0.53420  0.07770  0.32571  Biso   1.000  Hf
  Hf45     1.0000 0.52895  0.08383  0.82712  Biso   1.000  Hf
  Hf46     1.0000 0.52914  0.57927  0.33031  Biso   1.000  Hf
  Hf47     1.0000 0.52630  0.58510  0.83142  Biso   1.000  Hf
  Hf48     1.0000 0.46249  0.41564  0.17063  Biso   1.000  Hf
  Hf49     1.0000 0.45917  0.41688  0.67227  Biso   1.000  Hf
  Hf50     1.0000 0.45977  0.91514  0.67299  Biso   1.000  Hf
  Hf51     1.0000 0.95607  0.42851  0.16762  Biso   1.000  Hf
  Hf52     1.0000 0.95469  0.42424  0.66727  Biso   1.000  Hf
  Hf53     1.0000 0.92858  0.92520  0.17292  Biso   1.000  Hf
  Hf54     1.0000 0.95589  0.92113  0.67001  Biso   1.000  Hf
  Hf55     1.0000 0.45812  0.32900  0.42065  Biso   1.000  Hf
  Hf56     1.0000 0.45915  0.33351  0.92364  Biso   1.000  Hf
  Hf57     1.0000 0.45873  0.83291  0.42225  Biso   1.000  Hf
  Hf58     1.0000 0.46737  0.84212  0.93142  Biso   1.000  Hf
  Hf59     1.0000 0.95771  0.33088  0.42014  Biso   1.000  Hf
  Hf60     1.0000 0.95153  0.33087  0.91446  Biso   1.000  Hf
  Hf61     1.0000 0.96228  0.82908  0.41589  Biso   1.000  Hf
  Hf62     1.0000 0.95479  0.82896  0.92100  Biso   1.000  Hf
  Hf63     1.0000 0.28239  0.13391  0.25032  Biso   1.000  Hf
  Hf64     1.0000 0.26852  0.12922  0.73997  Biso   1.000  Hf
  Hf65     1.0000 0.27231  0.62133  0.23891  Biso   1.000  Hf
  Hf66     1.0000 0.26835  0.62908  0.74132  Biso   1.000  Hf
  Hf67     1.0000 0.77294  0.13314  0.24259  Biso   1.000  Hf
  Hf68     1.0000 0.77020  0.12923  0.74252  Biso   1.000  Hf
  Hf69     1.0000 0.77101  0.62857  0.24186  Biso   1.000  Hf
  Hf70     1.0000 0.76893  0.63020  0.73980  Biso   1.000  Hf
  Hf71     1.0000 0.26868  0.12093  0.49566  Biso   1.000  Hf
  Hf72     1.0000 0.27568  0.12741  0.98132  Biso   1.000  Hf
  Hf73     1.0000 0.27140  0.62017  0.49019  Biso   1.000  Hf
  Hf74     1.0000 0.26772  0.61737  0.99189  Biso   1.000  Hf
  Hf75     1.0000 0.76709  0.12223  0.49383  Biso   1.000  Hf
  Hf76     1.0000 0.76922  0.12204  0.99258  Biso   1.000  Hf
  Hf77     1.0000 0.77004  0.62135  0.49131  Biso   1.000  Hf
  Hf78     1.0000 0.76519  0.61981  0.99108  Biso   1.000  Hf
  Hf79     1.0000 0.22533  0.38018  0.00759  Biso   1.000  Hf
  Hf80     1.0000 0.21809  0.37927  0.51013  Biso   1.000  Hf
  Hf81     1.0000 0.22947  0.86408  0.99529  Biso   1.000  Hf
  Hf82     1.0000 0.21580  0.87991  0.51052  Biso   1.000  Hf
  Hf83     1.0000 0.72169  0.37955  0.00895  Biso   1.000  Hf
  Hf84     1.0000 0.71633  0.37947  0.51026  Biso   1.000  Hf
  Hf85     1.0000 0.72427  0.87979  0.00935  Biso   1.000  Hf
  Hf86     1.0000 0.71917  0.87790  0.51133  Biso   1.000  Hf
  Hf87     1.0000 0.21712  0.36957  0.25835  Biso   1.000  Hf
  Hf88     1.0000 0.21684  0.37238  0.75947  Biso   1.000  Hf
  Hf89     1.0000 0.25460  0.85906  0.25825  Biso   1.000  Hf
  Hf90     1.0000 0.21578  0.87128  0.75722  Biso   1.000  Hf
  Hf91     1.0000 0.71929  0.37225  0.26103  Biso   1.000  Hf
  Hf92     1.0000 0.71532  0.37080  0.75997  Biso   1.000  Hf
  Hf93     1.0000 0.70350  0.86855  0.26306  Biso   1.000  Hf
  Hf94     1.0000 0.71801  0.87093  0.76021  Biso   1.000  Hf
