data_image0
_cell_length_a       10.0068
_cell_length_b       10.377
_cell_length_c       10.0431
_cell_angle_alpha    90
_cell_angle_beta     90
_cell_angle_gamma    90

_symmetry_space_group_name_H-M    "P 1"
_symmetry_int_tables_number       1

loop_
  _symmetry_equiv_pos_as_xyz
  'x, y, z'

loop_
  _atom_site_label
  _atom_site_occupancy
  _atom_site_fract_x
  _atom_site_fract_y
  _atom_site_fract_z
  _atom_site_thermal_displace_type
  _atom_site_B_iso_or_equiv
  _atom_site_type_symbol
  La1      1.0000 0.12174  0.00555  0.11967  Biso   1.000  La
  Hf1      1.0000 0.12935  0.01389  0.62631  Biso   1.000  Hf
  Hf2      1.0000 0.13276  0.51692  0.12515  Biso   1.000  Hf
  Hf3      1.0000 0.13121  0.51599  0.62392  Biso   1.000  Hf
  Hf4      1.0000 0.63193  0.01447  0.12636  Biso   1.000  Hf
  Hf5      1.0000 0.62743  0.01609  0.62293  Biso   1.000  Hf
  Hf6      1.0000 0.63414  0.51432  0.12657  Biso   1.000  Hf
  Hf7      1.0000 0.63148  0.51335  0.62525  Biso   1.000  Hf
  Hf8      1.0000 0.13268  0.23329  0.37592  Biso   1.000  Hf
  Hf9      1.0000 0.13485  0.24108  0.86597  Biso   1.000  Hf
  Hf10     1.0000 0.13327  0.73281  0.37602  Biso   1.000  Hf
  Hf11     1.0000 0.13361  0.73118  0.87513  Biso   1.000  Hf
  Hf12     1.0000 0.63072  0.23311  0.37295  Biso   1.000  Hf
  Hf13     1.0000 0.62981  0.23064  0.87570  Biso   1.000  Hf
  Hf14     1.0000 0.63091  0.73111  0.37845  Biso   1.000  Hf
  Hf15     1.0000 0.63134  0.72728  0.87563  Biso   1.000  Hf
  Hf16     1.0000 0.36349  0.26521  0.12439  Biso   1.000  Hf
  Hf17     1.0000 0.36506  0.26398  0.62178  Biso   1.000  Hf
  Hf18     1.0000 0.37122  0.76338  0.12342  Biso   1.000  Hf
  Hf19     1.0000 0.36468  0.76467  0.62366  Biso   1.000  Hf
  Hf20     1.0000 0.86386  0.26627  0.12748  Biso   1.000  Hf
  Hf21     1.0000 0.86285  0.26516  0.62443  Biso   1.000  Hf
  Hf22     1.0000 0.86104  0.76501  0.13111  Biso   1.000  Hf
  Hf23     1.0000 0.86514  0.76261  0.62501  Biso   1.000  Hf
  Hf24     1.0000 0.36373  0.48235  0.37339  Biso   1.000  Hf
  Hf25     1.0000 0.36483  0.48149  0.87514  Biso   1.000  Hf
  Hf26     1.0000 0.36445  0.98326  0.37366  Biso   1.000  Hf
  Hf27     1.0000 0.36654  0.98130  0.87171  Biso   1.000  Hf
  Hf28     1.0000 0.86522  0.48251  0.37587  Biso   1.000  Hf
  Hf29     1.0000 0.86311  0.47859  0.87681  Biso   1.000  Hf
  Hf30     1.0000 0.86137  0.98222  0.38181  Biso   1.000  Hf
  Hf31     1.0000 0.85249  0.97639  0.87040  Biso   1.000  Hf
  Hf32     1.0000 0.02590  0.19259  0.20595  Biso   1.000  Hf
  Hf33     1.0000 0.03036  0.18077  0.69663  Biso   1.000  Hf
  Hf34     1.0000 0.03625  0.68642  0.19453  Biso   1.000  Hf
  Hf35     1.0000 0.03330  0.68171  0.69632  Biso   1.000  Hf
  Hf36     1.0000 0.53712  0.18459  0.18925  Biso   1.000  Hf
  Hf37     1.0000 0.53226  0.18253  0.69476  Biso   1.000  Hf
  Hf38     1.0000 0.53580  0.67939  0.19684  Biso   1.000  Hf
  Hf39     1.0000 0.53434  0.68128  0.69452  Biso   1.000  Hf
  Hf40     1.0000 0.03019  0.06589  0.44649  Biso   1.000  Hf
  Hf41     1.0000 0.03358  0.56591  0.44585  Biso   1.000  Hf
  Hf42     1.0000 0.02944  0.56794  0.94430  Biso   1.000  Hf
  Hf43     1.0000 0.53231  0.06553  0.44375  Biso   1.000  Hf
  Hf44     1.0000 0.53386  0.06318  0.94251  Biso   1.000  Hf
  Hf45     1.0000 0.53266  0.56350  0.44571  Biso   1.000  Hf
  Hf46     1.0000 0.53257  0.56266  0.94634  Biso   1.000  Hf
  Hf47     1.0000 0.46413  0.43147  0.19427  Biso   1.000  Hf
  Hf48     1.0000 0.46302  0.43155  0.69440  Biso   1.000  Hf
  Hf49     1.0000 0.46281  0.93550  0.19106  Biso   1.000  Hf
  Hf50     1.0000 0.46314  0.93166  0.69359  Biso   1.000  Hf
  Hf51     1.0000 0.96019  0.43841  0.19261  Biso   1.000  Hf
  Hf52     1.0000 0.96575  0.42961  0.69979  Biso   1.000  Hf
  Hf53     1.0000 0.94194  0.92647  0.20937  Biso   1.000  Hf
  Hf54     1.0000 0.96092  0.93058  0.69722  Biso   1.000  Hf
  Hf55     1.0000 0.46122  0.31390  0.44291  Biso   1.000  Hf
  Hf56     1.0000 0.46070  0.31355  0.94253  Biso   1.000  Hf
  Hf57     1.0000 0.46421  0.81610  0.44669  Biso   1.000  Hf
  Hf58     1.0000 0.46929  0.81432  0.94473  Biso   1.000  Hf
  Hf59     1.0000 0.96352  0.31843  0.44911  Biso   1.000  Hf
  Hf60     1.0000 0.96330  0.30698  0.94714  Biso   1.000  Hf
  Hf61     1.0000 0.96367  0.81448  0.44964  Biso   1.000  Hf
  Hf62     1.0000 0.97481  0.83434  0.95750  Biso   1.000  Hf
  Hf63     1.0000 0.27779  0.12595  0.25372  Biso   1.000  Hf
  Hf64     1.0000 0.26788  0.11642  0.74476  Biso   1.000  Hf
  Hf65     1.0000 0.26865  0.61357  0.24813  Biso   1.000  Hf
  Hf66     1.0000 0.26810  0.61552  0.74856  Biso   1.000  Hf
  Hf67     1.0000 0.76496  0.11619  0.25116  Biso   1.000  Hf
  Hf68     1.0000 0.76444  0.11467  0.74745  Biso   1.000  Hf
  Hf69     1.0000 0.76910  0.61728  0.25084  Biso   1.000  Hf
  Hf70     1.0000 0.76947  0.61230  0.74964  Biso   1.000  Hf
  Hf71     1.0000 0.26524  0.13006  0.50023  Biso   1.000  Hf
  Hf72     1.0000 0.26204  0.13547  0.98788  Biso   1.000  Hf
  Hf73     1.0000 0.26835  0.63170  0.49855  Biso   1.000  Hf
  Hf74     1.0000 0.26682  0.62730  0.99849  Biso   1.000  Hf
  Hf75     1.0000 0.76398  0.13356  0.50010  Biso   1.000  Hf
  Hf76     1.0000 0.77211  0.12459  0.99828  Biso   1.000  Hf
  Hf77     1.0000 0.76830  0.63003  0.50005  Biso   1.000  Hf
  Hf78     1.0000 0.76731  0.62738  0.99930  Biso   1.000  Hf
  Hf79     1.0000 0.22839  0.38246  0.49807  Biso   1.000  Hf
  Hf80     1.0000 0.22605  0.38322  0.99666  Biso   1.000  Hf
  Hf81     1.0000 0.22811  0.88216  0.49841  Biso   1.000  Hf
  Hf82     1.0000 0.24099  0.86980  0.98761  Biso   1.000  Hf
  Hf83     1.0000 0.72747  0.38151  0.49887  Biso   1.000  Hf
  Hf84     1.0000 0.72516  0.37784  0.99867  Biso   1.000  Hf
  Hf85     1.0000 0.72754  0.87974  0.50329  Biso   1.000  Hf
  Hf86     1.0000 0.73351  0.87864  0.00013  Biso   1.000  Hf
  Hf87     1.0000 0.22620  0.36826  0.24702  Biso   1.000  Hf
  Hf88     1.0000 0.23018  0.36725  0.74524  Biso   1.000  Hf
  Hf89     1.0000 0.24177  0.85582  0.25440  Biso   1.000  Hf
  Hf90     1.0000 0.22784  0.86510  0.74523  Biso   1.000  Hf
  Hf91     1.0000 0.72837  0.36776  0.25016  Biso   1.000  Hf
  Hf92     1.0000 0.72823  0.36399  0.74929  Biso   1.000  Hf
  Hf93     1.0000 0.71636  0.86488  0.25217  Biso   1.000  Hf
  Hf94     1.0000 0.72790  0.86380  0.75125  Biso   1.000  Hf
