data_image0
_cell_length_a       10.046
_cell_length_b       10.2713
_cell_length_c       10.443
_cell_angle_alpha    90
_cell_angle_beta     90
_cell_angle_gamma    90

_symmetry_space_group_name_H-M    "P 1"
_symmetry_int_tables_number       1

loop_
  _symmetry_equiv_pos_as_xyz
  'x, y, z'

loop_
  _atom_site_label
  _atom_site_occupancy
  _atom_site_fract_x
  _atom_site_fract_y
  _atom_site_fract_z
  _atom_site_thermal_displace_type
  _atom_site_B_iso_or_equiv
  _atom_site_type_symbol
  La1      1.0000 0.11643  0.99976  0.15558  Biso   1.000  La
  Hf1      1.0000 0.13583  0.01987  0.67088  Biso   1.000  Hf
  Hf2      1.0000 0.13634  0.51979  0.17158  Biso   1.000  Hf
  Hf3      1.0000 0.13353  0.52119  0.67033  Biso   1.000  Hf
  Hf4      1.0000 0.13385  0.22359  0.41883  Biso   1.000  Hf
  Hf5      1.0000 0.13316  0.23097  0.91849  Biso   1.000  Hf
  Hf6      1.0000 0.13390  0.72647  0.42029  Biso   1.000  Hf
  Hf7      1.0000 0.13442  0.72851  0.92244  Biso   1.000  Hf
  Hf8      1.0000 0.35465  0.26495  0.17020  Biso   1.000  Hf
  Hf9      1.0000 0.35520  0.26979  0.66965  Biso   1.000  Hf
  Hf10     1.0000 0.36450  0.76764  0.17113  Biso   1.000  Hf
  Hf11     1.0000 0.35336  0.77000  0.66995  Biso   1.000  Hf
  Hf12     1.0000 0.35551  0.47579  0.41974  Biso   1.000  Hf
  Hf13     1.0000 0.35449  0.47628  0.92149  Biso   1.000  Hf
  Hf14     1.0000 0.35410  0.97787  0.41838  Biso   1.000  Hf
  Hf15     1.0000 0.35828  0.97888  0.91880  Biso   1.000  Hf
  Hf16     1.0000 0.64123  0.02208  0.07913  Biso   1.000  Hf
  Hf17     1.0000 0.63173  0.01985  0.58212  Biso   1.000  Hf
  Hf18     1.0000 0.63413  0.51644  0.07926  Biso   1.000  Hf
  Hf19     1.0000 0.63252  0.51947  0.57760  Biso   1.000  Hf
  Hf20     1.0000 0.63282  0.22930  0.32907  Biso   1.000  Hf
  Hf21     1.0000 0.63370  0.22906  0.82798  Biso   1.000  Hf
  Hf22     1.0000 0.63587  0.72633  0.33025  Biso   1.000  Hf
  Hf23     1.0000 0.62969  0.72745  0.82701  Biso   1.000  Hf
  Hf24     1.0000 0.85908  0.27470  0.07691  Biso   1.000  Hf
  Hf25     1.0000 0.85812  0.27081  0.57926  Biso   1.000  Hf
  Hf26     1.0000 0.85156  0.76298  0.07866  Biso   1.000  Hf
  Hf27     1.0000 0.85567  0.76904  0.57924  Biso   1.000  Hf
  Hf28     1.0000 0.85826  0.47740  0.32954  Biso   1.000  Hf
  Hf29     1.0000 0.85496  0.47863  0.82661  Biso   1.000  Hf
  Hf30     1.0000 0.84600  0.98277  0.34092  Biso   1.000  Hf
  Hf31     1.0000 0.85423  0.97937  0.83063  Biso   1.000  Hf
  Hf32     1.0000 0.03207  0.18544  0.08221  Biso   1.000  Hf
  Hf33     1.0000 0.02983  0.16709  0.58809  Biso   1.000  Hf
  Hf34     1.0000 0.03559  0.68178  0.09632  Biso   1.000  Hf
  Hf35     1.0000 0.02846  0.66769  0.58537  Biso   1.000  Hf
  Hf36     1.0000 0.02061  0.07952  0.34498  Biso   1.000  Hf
  Hf37     1.0000 0.03039  0.08257  0.83576  Biso   1.000  Hf
  Hf38     1.0000 0.03195  0.57832  0.33803  Biso   1.000  Hf
  Hf39     1.0000 0.02450  0.58746  0.83561  Biso   1.000  Hf
  Hf40     1.0000 0.46334  0.41404  0.08469  Biso   1.000  Hf
  Hf41     1.0000 0.46134  0.41485  0.58334  Biso   1.000  Hf
  Hf42     1.0000 0.47143  0.91562  0.08410  Biso   1.000  Hf
  Hf43     1.0000 0.45764  0.91556  0.58410  Biso   1.000  Hf
  Hf44     1.0000 0.46161  0.33201  0.33371  Biso   1.000  Hf
  Hf45     1.0000 0.46033  0.33148  0.83355  Biso   1.000  Hf
  Hf46     1.0000 0.46902  0.83554  0.33217  Biso   1.000  Hf
  Hf47     1.0000 0.46116  0.83306  0.83059  Biso   1.000  Hf
  Hf48     1.0000 0.27407  0.12306  0.29675  Biso   1.000  Hf
  Hf49     1.0000 0.27221  0.12245  0.79069  Biso   1.000  Hf
  Hf50     1.0000 0.27524  0.61906  0.29362  Biso   1.000  Hf
  Hf51     1.0000 0.26990  0.62308  0.79470  Biso   1.000  Hf
  Hf52     1.0000 0.28089  0.12953  0.03449  Biso   1.000  Hf
  Hf53     1.0000 0.27198  0.12418  0.54340  Biso   1.000  Hf
  Hf54     1.0000 0.27090  0.62059  0.04446  Biso   1.000  Hf
  Hf55     1.0000 0.27041  0.62444  0.54384  Biso   1.000  Hf
  Hf56     1.0000 0.21757  0.37103  0.29284  Biso   1.000  Hf
  Hf57     1.0000 0.21784  0.37430  0.79301  Biso   1.000  Hf
  Hf58     1.0000 0.22710  0.86141  0.29754  Biso   1.000  Hf
  Hf59     1.0000 0.21610  0.87247  0.79289  Biso   1.000  Hf
  Hf60     1.0000 0.22120  0.37658  0.04396  Biso   1.000  Hf
  Hf61     1.0000 0.21763  0.37491  0.54346  Biso   1.000  Hf
  Hf62     1.0000 0.24527  0.86165  0.03396  Biso   1.000  Hf
  Hf63     1.0000 0.21576  0.87535  0.54379  Biso   1.000  Hf
  Hf64     1.0000 0.53236  0.16602  0.16439  Biso   1.000  Hf
  Hf65     1.0000 0.52851  0.16633  0.66528  Biso   1.000  Hf
  Hf66     1.0000 0.53426  0.66454  0.16538  Biso   1.000  Hf
  Hf67     1.0000 0.52630  0.66467  0.66447  Biso   1.000  Hf
  Hf68     1.0000 0.53100  0.08124  0.41529  Biso   1.000  Hf
  Hf69     1.0000 0.53456  0.08073  0.91414  Biso   1.000  Hf
  Hf70     1.0000 0.52886  0.58213  0.41461  Biso   1.000  Hf
  Hf71     1.0000 0.52638  0.58187  0.91637  Biso   1.000  Hf
  Hf72     1.0000 0.95913  0.42611  0.16042  Biso   1.000  Hf
  Hf73     1.0000 0.96041  0.41973  0.66305  Biso   1.000  Hf
  Hf74     1.0000 0.96032  0.91165  0.67107  Biso   1.000  Hf
  Hf75     1.0000 0.96076  0.32969  0.41356  Biso   1.000  Hf
  Hf76     1.0000 0.95808  0.33418  0.90954  Biso   1.000  Hf
  Hf77     1.0000 0.95829  0.83077  0.40953  Biso   1.000  Hf
  Hf78     1.0000 0.96997  0.85264  0.94215  Biso   1.000  Hf
  Hf79     1.0000 0.77327  0.12389  0.95616  Biso   1.000  Hf
  Hf80     1.0000 0.76816  0.12472  0.46048  Biso   1.000  Hf
  Hf81     1.0000 0.76989  0.62288  0.95587  Biso   1.000  Hf
  Hf82     1.0000 0.77246  0.62213  0.45574  Biso   1.000  Hf
  Hf83     1.0000 0.77533  0.12508  0.20807  Biso   1.000  Hf
  Hf84     1.0000 0.77242  0.12536  0.70765  Biso   1.000  Hf
  Hf85     1.0000 0.77236  0.62262  0.20650  Biso   1.000  Hf
  Hf86     1.0000 0.76921  0.62649  0.70472  Biso   1.000  Hf
  Hf87     1.0000 0.71621  0.37437  0.95328  Biso   1.000  Hf
  Hf88     1.0000 0.71924  0.37360  0.45503  Biso   1.000  Hf
  Hf89     1.0000 0.71876  0.87061  0.95466  Biso   1.000  Hf
  Hf90     1.0000 0.71490  0.87149  0.45995  Biso   1.000  Hf
  Hf91     1.0000 0.72010  0.37432  0.20547  Biso   1.000  Hf
  Hf92     1.0000 0.71861  0.37532  0.70404  Biso   1.000  Hf
  Hf93     1.0000 0.73218  0.87349  0.20576  Biso   1.000  Hf
  Hf94     1.0000 0.71755  0.87543  0.70683  Biso   1.000  Hf
