data_image0
_cell_length_a       10.135
_cell_length_b       10.3152
_cell_length_c       10.4244
_cell_angle_alpha    90
_cell_angle_beta     80
_cell_angle_gamma    90

_symmetry_space_group_name_H-M    "P 1"
_symmetry_int_tables_number       1

loop_
  _symmetry_equiv_pos_as_xyz
  'x, y, z'

loop_
  _atom_site_label
  _atom_site_occupancy
  _atom_site_fract_x
  _atom_site_fract_y
  _atom_site_fract_z
  _atom_site_thermal_displace_type
  _atom_site_B_iso_or_equiv
  _atom_site_type_symbol
  La1      1.0000 0.13329  0.00381  0.13482  Biso   1.000  La
  Hf1      1.0000 0.12916  0.02040  0.64834  Biso   1.000  Hf
  Hf2      1.0000 0.13612  0.52117  0.14568  Biso   1.000  Hf
  Hf3      1.0000 0.13065  0.51742  0.64525  Biso   1.000  Hf
  Hf4      1.0000 0.63786  0.02044  0.14711  Biso   1.000  Hf
  Hf5      1.0000 0.63413  0.02143  0.64495  Biso   1.000  Hf
  Hf6      1.0000 0.63715  0.51649  0.14782  Biso   1.000  Hf
  Hf7      1.0000 0.62961  0.51914  0.64652  Biso   1.000  Hf
  Hf8      1.0000 0.13288  0.22402  0.39434  Biso   1.000  Hf
  Hf9      1.0000 0.12589  0.23023  0.89605  Biso   1.000  Hf
  Hf10     1.0000 0.13353  0.72496  0.39893  Biso   1.000  Hf
  Hf11     1.0000 0.12392  0.72117  0.89482  Biso   1.000  Hf
  Hf12     1.0000 0.63271  0.22859  0.39684  Biso   1.000  Hf
  Hf13     1.0000 0.62865  0.22811  0.89877  Biso   1.000  Hf
  Hf14     1.0000 0.62979  0.72583  0.39754  Biso   1.000  Hf
  Hf15     1.0000 0.62573  0.72789  0.89565  Biso   1.000  Hf
  Hf16     1.0000 0.35890  0.26808  0.10370  Biso   1.000  Hf
  Hf17     1.0000 0.35286  0.26903  0.60390  Biso   1.000  Hf
  Hf18     1.0000 0.36879  0.76329  0.10880  Biso   1.000  Hf
  Hf19     1.0000 0.35256  0.76940  0.60715  Biso   1.000  Hf
  Hf20     1.0000 0.86119  0.27185  0.10379  Biso   1.000  Hf
  Hf21     1.0000 0.85455  0.27034  0.60487  Biso   1.000  Hf
  Hf22     1.0000 0.85289  0.76798  0.10567  Biso   1.000  Hf
  Hf23     1.0000 0.85347  0.76947  0.60470  Biso   1.000  Hf
  Hf24     1.0000 0.35445  0.47503  0.35386  Biso   1.000  Hf
  Hf25     1.0000 0.35108  0.47633  0.85547  Biso   1.000  Hf
  Hf26     1.0000 0.35714  0.97807  0.35599  Biso   1.000  Hf
  Hf27     1.0000 0.35939  0.98227  0.84841  Biso   1.000  Hf
  Hf28     1.0000 0.85684  0.47817  0.35553  Biso   1.000  Hf
  Hf29     1.0000 0.84714  0.47655  0.85488  Biso   1.000  Hf
  Hf30     1.0000 0.85073  0.97759  0.35766  Biso   1.000  Hf
  Hf31     1.0000 0.84984  0.97688  0.85746  Biso   1.000  Hf
  Hf32     1.0000 0.03984  0.19094  0.08031  Biso   1.000  Hf
  Hf33     1.0000 0.03011  0.17146  0.58605  Biso   1.000  Hf
  Hf34     1.0000 0.04101  0.68377  0.08658  Biso   1.000  Hf
  Hf35     1.0000 0.02881  0.66979  0.58541  Biso   1.000  Hf
  Hf36     1.0000 0.53665  0.16996  0.08048  Biso   1.000  Hf
  Hf37     1.0000 0.52833  0.16923  0.58300  Biso   1.000  Hf
  Hf38     1.0000 0.54043  0.66920  0.08162  Biso   1.000  Hf
  Hf39     1.0000 0.52703  0.66849  0.58434  Biso   1.000  Hf
  Hf40     1.0000 0.02473  0.07625  0.34274  Biso   1.000  Hf
  Hf41     1.0000 0.02767  0.07478  0.83775  Biso   1.000  Hf
  Hf42     1.0000 0.03310  0.57673  0.33326  Biso   1.000  Hf
  Hf43     1.0000 0.02489  0.57454  0.83482  Biso   1.000  Hf
  Hf44     1.0000 0.53318  0.07673  0.33361  Biso   1.000  Hf
  Hf45     1.0000 0.53260  0.07756  0.83026  Biso   1.000  Hf
  Hf46     1.0000 0.52995  0.57668  0.33165  Biso   1.000  Hf
  Hf47     1.0000 0.52477  0.57842  0.83315  Biso   1.000  Hf
  Hf48     1.0000 0.46140  0.41755  0.16897  Biso   1.000  Hf
  Hf49     1.0000 0.45417  0.41867  0.67017  Biso   1.000  Hf
  Hf50     1.0000 0.46034  0.92203  0.16719  Biso   1.000  Hf
  Hf51     1.0000 0.45697  0.92002  0.66656  Biso   1.000  Hf
  Hf52     1.0000 0.95670  0.42969  0.16505  Biso   1.000  Hf
  Hf53     1.0000 0.95261  0.42233  0.66793  Biso   1.000  Hf
  Hf54     1.0000 0.92665  0.92848  0.16910  Biso   1.000  Hf
  Hf55     1.0000 0.95360  0.91885  0.67181  Biso   1.000  Hf
  Hf56     1.0000 0.45699  0.32695  0.41911  Biso   1.000  Hf
  Hf57     1.0000 0.45357  0.32818  0.91999  Biso   1.000  Hf
  Hf58     1.0000 0.45462  0.82575  0.42170  Biso   1.000  Hf
  Hf59     1.0000 0.44435  0.82706  0.92350  Biso   1.000  Hf
  Hf60     1.0000 0.95707  0.32744  0.41812  Biso   1.000  Hf
  Hf61     1.0000 0.94769  0.32640  0.91457  Biso   1.000  Hf
  Hf62     1.0000 0.95746  0.82633  0.41745  Biso   1.000  Hf
  Hf63     1.0000 0.95386  0.82951  0.92431  Biso   1.000  Hf
  Hf64     1.0000 0.27933  0.13178  0.24592  Biso   1.000  Hf
  Hf65     1.0000 0.26654  0.12804  0.73884  Biso   1.000  Hf
  Hf66     1.0000 0.27447  0.62161  0.24068  Biso   1.000  Hf
  Hf67     1.0000 0.26512  0.62608  0.74138  Biso   1.000  Hf
  Hf68     1.0000 0.77060  0.13193  0.24328  Biso   1.000  Hf
  Hf69     1.0000 0.77021  0.12838  0.74244  Biso   1.000  Hf
  Hf70     1.0000 0.77149  0.62743  0.24216  Biso   1.000  Hf
  Hf71     1.0000 0.76518  0.62877  0.74192  Biso   1.000  Hf
  Hf72     1.0000 0.26848  0.11801  0.49266  Biso   1.000  Hf
  Hf73     1.0000 0.27245  0.12114  0.98064  Biso   1.000  Hf
  Hf74     1.0000 0.26954  0.61764  0.49239  Biso   1.000  Hf
  Hf75     1.0000 0.26241  0.62231  0.99256  Biso   1.000  Hf
  Hf76     1.0000 0.76799  0.12079  0.49334  Biso   1.000  Hf
  Hf77     1.0000 0.76434  0.11804  0.99397  Biso   1.000  Hf
  Hf78     1.0000 0.76887  0.61910  0.49217  Biso   1.000  Hf
  Hf79     1.0000 0.76200  0.61808  0.99106  Biso   1.000  Hf
  Hf80     1.0000 0.22585  0.38302  0.00674  Biso   1.000  Hf
  Hf81     1.0000 0.21581  0.37688  0.50871  Biso   1.000  Hf
  Hf82     1.0000 0.21511  0.87721  0.51575  Biso   1.000  Hf
  Hf83     1.0000 0.72358  0.37981  0.00862  Biso   1.000  Hf
  Hf84     1.0000 0.71636  0.37824  0.51033  Biso   1.000  Hf
  Hf85     1.0000 0.72169  0.87843  0.00730  Biso   1.000  Hf
  Hf86     1.0000 0.71643  0.87743  0.51113  Biso   1.000  Hf
  Hf87     1.0000 0.21710  0.36926  0.25726  Biso   1.000  Hf
  Hf88     1.0000 0.21352  0.36992  0.75909  Biso   1.000  Hf
  Hf89     1.0000 0.23126  0.85633  0.26450  Biso   1.000  Hf
  Hf90     1.0000 0.21480  0.86913  0.77125  Biso   1.000  Hf
  Hf91     1.0000 0.72003  0.37094  0.26053  Biso   1.000  Hf
  Hf92     1.0000 0.71273  0.36932  0.76013  Biso   1.000  Hf
  Hf93     1.0000 0.70513  0.86588  0.26325  Biso   1.000  Hf
  Hf94     1.0000 0.71301  0.86923  0.76065  Biso   1.000  Hf
