data_image0
_cell_length_a       10.168
_cell_length_b       10.3075
_cell_length_c       10.4624
_cell_angle_alpha    90
_cell_angle_beta     80
_cell_angle_gamma    90

_symmetry_space_group_name_H-M    "P 1"
_symmetry_int_tables_number       1

loop_
  _symmetry_equiv_pos_as_xyz
  'x, y, z'

loop_
  _atom_site_label
  _atom_site_occupancy
  _atom_site_fract_x
  _atom_site_fract_y
  _atom_site_fract_z
  _atom_site_thermal_displace_type
  _atom_site_B_iso_or_equiv
  _atom_site_type_symbol
  La1      1.0000 0.13138  0.01126  0.14289  Biso   1.000  La
  Hf1      1.0000 0.13521  0.01947  0.64721  Biso   1.000  Hf
  Hf2      1.0000 0.13838  0.52184  0.14461  Biso   1.000  Hf
  Hf3      1.0000 0.13475  0.52112  0.64774  Biso   1.000  Hf
  Hf4      1.0000 0.63627  0.02120  0.14522  Biso   1.000  Hf
  Hf5      1.0000 0.63436  0.02034  0.64908  Biso   1.000  Hf
  Hf6      1.0000 0.63888  0.51812  0.14522  Biso   1.000  Hf
  Hf7      1.0000 0.63657  0.51936  0.64643  Biso   1.000  Hf
  Hf8      1.0000 0.14416  0.23623  0.40156  Biso   1.000  Hf
  Hf9      1.0000 0.13351  0.23039  0.89589  Biso   1.000  Hf
  Hf10     1.0000 0.13780  0.72636  0.39752  Biso   1.000  Hf
  Hf11     1.0000 0.13618  0.72643  0.89607  Biso   1.000  Hf
  Hf12     1.0000 0.63540  0.22867  0.39619  Biso   1.000  Hf
  Hf13     1.0000 0.63378  0.22754  0.89704  Biso   1.000  Hf
  Hf14     1.0000 0.63249  0.72231  0.39828  Biso   1.000  Hf
  Hf15     1.0000 0.63683  0.72668  0.89529  Biso   1.000  Hf
  Hf16     1.0000 0.35943  0.26987  0.10398  Biso   1.000  Hf
  Hf17     1.0000 0.35993  0.26916  0.60653  Biso   1.000  Hf
  Hf18     1.0000 0.36795  0.76795  0.10362  Biso   1.000  Hf
  Hf19     1.0000 0.35790  0.77038  0.60576  Biso   1.000  Hf
  Hf20     1.0000 0.86015  0.27310  0.10303  Biso   1.000  Hf
  Hf21     1.0000 0.85796  0.26825  0.60302  Biso   1.000  Hf
  Hf22     1.0000 0.85759  0.76663  0.10426  Biso   1.000  Hf
  Hf23     1.0000 0.85987  0.77121  0.60497  Biso   1.000  Hf
  Hf24     1.0000 0.35971  0.47811  0.35247  Biso   1.000  Hf
  Hf25     1.0000 0.35881  0.47658  0.85518  Biso   1.000  Hf
  Hf26     1.0000 0.36168  0.97772  0.35704  Biso   1.000  Hf
  Hf27     1.0000 0.36073  0.97639  0.85391  Biso   1.000  Hf
  Hf28     1.0000 0.86101  0.47720  0.35334  Biso   1.000  Hf
  Hf29     1.0000 0.85637  0.47644  0.85249  Biso   1.000  Hf
  Hf30     1.0000 0.83844  0.96977  0.35923  Biso   1.000  Hf
  Hf31     1.0000 0.85937  0.97694  0.85643  Biso   1.000  Hf
  Hf32     1.0000 0.03616  0.18941  0.07888  Biso   1.000  Hf
  Hf33     1.0000 0.03146  0.16432  0.57542  Biso   1.000  Hf
  Hf34     1.0000 0.03888  0.67457  0.08186  Biso   1.000  Hf
  Hf35     1.0000 0.03251  0.66858  0.58106  Biso   1.000  Hf
  Hf36     1.0000 0.53510  0.16928  0.08011  Biso   1.000  Hf
  Hf37     1.0000 0.53355  0.16832  0.58165  Biso   1.000  Hf
  Hf38     1.0000 0.54049  0.66783  0.07950  Biso   1.000  Hf
  Hf39     1.0000 0.53045  0.66414  0.58131  Biso   1.000  Hf
  Hf40     1.0000 0.03165  0.07942  0.83294  Biso   1.000  Hf
  Hf41     1.0000 0.03399  0.58035  0.33166  Biso   1.000  Hf
  Hf42     1.0000 0.03061  0.57906  0.82985  Biso   1.000  Hf
  Hf43     1.0000 0.53481  0.07909  0.33192  Biso   1.000  Hf
  Hf44     1.0000 0.53282  0.07973  0.83024  Biso   1.000  Hf
  Hf45     1.0000 0.53270  0.57808  0.32903  Biso   1.000  Hf
  Hf46     1.0000 0.53296  0.57957  0.83022  Biso   1.000  Hf
  Hf47     1.0000 0.46416  0.41710  0.16998  Biso   1.000  Hf
  Hf48     1.0000 0.46304  0.41622  0.67149  Biso   1.000  Hf
  Hf49     1.0000 0.46292  0.92259  0.16886  Biso   1.000  Hf
  Hf50     1.0000 0.46313  0.91680  0.67105  Biso   1.000  Hf
  Hf51     1.0000 0.95961  0.42668  0.16678  Biso   1.000  Hf
  Hf52     1.0000 0.96177  0.41684  0.66570  Biso   1.000  Hf
  Hf53     1.0000 0.93498  0.91839  0.18054  Biso   1.000  Hf
  Hf54     1.0000 0.96267  0.91666  0.67337  Biso   1.000  Hf
  Hf55     1.0000 0.46078  0.32926  0.42071  Biso   1.000  Hf
  Hf56     1.0000 0.46124  0.33115  0.92222  Biso   1.000  Hf
  Hf57     1.0000 0.46127  0.82848  0.42327  Biso   1.000  Hf
  Hf58     1.0000 0.46934  0.83189  0.92114  Biso   1.000  Hf
  Hf59     1.0000 0.96218  0.32157  0.41272  Biso   1.000  Hf
  Hf60     1.0000 0.95619  0.32958  0.91553  Biso   1.000  Hf
  Hf61     1.0000 0.96479  0.83940  0.42114  Biso   1.000  Hf
  Hf62     1.0000 0.96280  0.83181  0.92513  Biso   1.000  Hf
  Hf63     1.0000 0.27353  0.13634  0.25346  Biso   1.000  Hf
  Hf64     1.0000 0.27149  0.12771  0.74012  Biso   1.000  Hf
  Hf65     1.0000 0.27626  0.62474  0.23942  Biso   1.000  Hf
  Hf66     1.0000 0.27249  0.62750  0.74136  Biso   1.000  Hf
  Hf67     1.0000 0.77333  0.12866  0.24230  Biso   1.000  Hf
  Hf68     1.0000 0.77349  0.12796  0.74098  Biso   1.000  Hf
  Hf69     1.0000 0.77374  0.62660  0.24161  Biso   1.000  Hf
  Hf70     1.0000 0.77363  0.62802  0.73915  Biso   1.000  Hf
  Hf71     1.0000 0.27474  0.11955  0.49533  Biso   1.000  Hf
  Hf72     1.0000 0.27884  0.12528  0.98232  Biso   1.000  Hf
  Hf73     1.0000 0.27293  0.61880  0.49134  Biso   1.000  Hf
  Hf74     1.0000 0.27178  0.61618  0.99132  Biso   1.000  Hf
  Hf75     1.0000 0.77166  0.11751  0.49180  Biso   1.000  Hf
  Hf76     1.0000 0.76938  0.11907  0.99208  Biso   1.000  Hf
  Hf77     1.0000 0.77424  0.61919  0.49055  Biso   1.000  Hf
  Hf78     1.0000 0.77192  0.61668  0.99008  Biso   1.000  Hf
  Hf79     1.0000 0.22577  0.38071  0.00851  Biso   1.000  Hf
  Hf80     1.0000 0.22137  0.37740  0.51015  Biso   1.000  Hf
  Hf81     1.0000 0.23428  0.86415  0.99841  Biso   1.000  Hf
  Hf82     1.0000 0.22139  0.87764  0.51238  Biso   1.000  Hf
  Hf83     1.0000 0.72361  0.37963  0.00784  Biso   1.000  Hf
  Hf84     1.0000 0.72328  0.37686  0.50913  Biso   1.000  Hf
  Hf85     1.0000 0.72671  0.87863  0.00957  Biso   1.000  Hf
  Hf86     1.0000 0.71670  0.87343  0.51345  Biso   1.000  Hf
  Hf87     1.0000 0.22098  0.37393  0.25907  Biso   1.000  Hf
  Hf88     1.0000 0.22086  0.37089  0.75925  Biso   1.000  Hf
  Hf89     1.0000 0.23558  0.85926  0.26632  Biso   1.000  Hf
  Hf90     1.0000 0.22088  0.86980  0.75909  Biso   1.000  Hf
  Hf91     1.0000 0.72172  0.37032  0.26019  Biso   1.000  Hf
  Hf92     1.0000 0.72042  0.36889  0.75870  Biso   1.000  Hf
  Hf93     1.0000 0.70623  0.86590  0.26472  Biso   1.000  Hf
  Hf94     1.0000 0.72341  0.86982  0.76034  Biso   1.000  Hf
