data_image0
_cell_length_a       10.0618
_cell_length_b       10.2677
_cell_length_c       10.4549
_cell_angle_alpha    90
_cell_angle_beta     90
_cell_angle_gamma    90

_symmetry_space_group_name_H-M    "P 1"
_symmetry_int_tables_number       1

loop_
  _symmetry_equiv_pos_as_xyz
  'x, y, z'

loop_
  _atom_site_label
  _atom_site_occupancy
  _atom_site_fract_x
  _atom_site_fract_y
  _atom_site_fract_z
  _atom_site_thermal_displace_type
  _atom_site_B_iso_or_equiv
  _atom_site_type_symbol
  La1      1.0000 0.13671  0.00646  0.15695  Biso   1.000  La
  Hf1      1.0000 0.13633  0.01980  0.67152  Biso   1.000  Hf
  Hf2      1.0000 0.13651  0.52149  0.17099  Biso   1.000  Hf
  Hf3      1.0000 0.13704  0.51775  0.66858  Biso   1.000  Hf
  Hf4      1.0000 0.13715  0.22419  0.41911  Biso   1.000  Hf
  Hf5      1.0000 0.13523  0.23220  0.91799  Biso   1.000  Hf
  Hf6      1.0000 0.13632  0.72627  0.42300  Biso   1.000  Hf
  Hf7      1.0000 0.13240  0.72207  0.91769  Biso   1.000  Hf
  Hf8      1.0000 0.35799  0.26934  0.17007  Biso   1.000  Hf
  Hf9      1.0000 0.35938  0.26895  0.66923  Biso   1.000  Hf
  Hf10     1.0000 0.36901  0.76217  0.17700  Biso   1.000  Hf
  Hf11     1.0000 0.35812  0.76848  0.67192  Biso   1.000  Hf
  Hf12     1.0000 0.35918  0.47536  0.42006  Biso   1.000  Hf
  Hf13     1.0000 0.35964  0.47691  0.92057  Biso   1.000  Hf
  Hf14     1.0000 0.35857  0.97708  0.42190  Biso   1.000  Hf
  Hf15     1.0000 0.36411  0.98289  0.91160  Biso   1.000  Hf
  Hf16     1.0000 0.63643  0.01960  0.08193  Biso   1.000  Hf
  Hf17     1.0000 0.63698  0.01951  0.58059  Biso   1.000  Hf
  Hf18     1.0000 0.63855  0.51718  0.07821  Biso   1.000  Hf
  Hf19     1.0000 0.63589  0.51885  0.57700  Biso   1.000  Hf
  Hf20     1.0000 0.63597  0.22809  0.32892  Biso   1.000  Hf
  Hf21     1.0000 0.63783  0.22795  0.82775  Biso   1.000  Hf
  Hf22     1.0000 0.63948  0.72708  0.33221  Biso   1.000  Hf
  Hf23     1.0000 0.63525  0.72605  0.82725  Biso   1.000  Hf
  Hf24     1.0000 0.86039  0.27194  0.07759  Biso   1.000  Hf
  Hf25     1.0000 0.86056  0.26957  0.57786  Biso   1.000  Hf
  Hf26     1.0000 0.85361  0.76790  0.07949  Biso   1.000  Hf
  Hf27     1.0000 0.85990  0.76968  0.58011  Biso   1.000  Hf
  Hf28     1.0000 0.86054  0.47748  0.32906  Biso   1.000  Hf
  Hf29     1.0000 0.85633  0.47678  0.82628  Biso   1.000  Hf
  Hf30     1.0000 0.85394  0.97912  0.33329  Biso   1.000  Hf
  Hf31     1.0000 0.85714  0.97764  0.83145  Biso   1.000  Hf
  Hf32     1.0000 0.03537  0.18650  0.08276  Biso   1.000  Hf
  Hf33     1.0000 0.03312  0.16717  0.58856  Biso   1.000  Hf
  Hf34     1.0000 0.03604  0.67494  0.08750  Biso   1.000  Hf
  Hf35     1.0000 0.03210  0.66623  0.58781  Biso   1.000  Hf
  Hf36     1.0000 0.02552  0.08183  0.34396  Biso   1.000  Hf
  Hf37     1.0000 0.03350  0.08023  0.83874  Biso   1.000  Hf
  Hf38     1.0000 0.03281  0.58142  0.33629  Biso   1.000  Hf
  Hf39     1.0000 0.03015  0.58040  0.83444  Biso   1.000  Hf
  Hf40     1.0000 0.46516  0.41596  0.08355  Biso   1.000  Hf
  Hf41     1.0000 0.46492  0.41373  0.58328  Biso   1.000  Hf
  Hf42     1.0000 0.44757  0.91958  0.08419  Biso   1.000  Hf
  Hf43     1.0000 0.46249  0.91560  0.58672  Biso   1.000  Hf
  Hf44     1.0000 0.46532  0.33333  0.33241  Biso   1.000  Hf
  Hf45     1.0000 0.46408  0.33116  0.83362  Biso   1.000  Hf
  Hf46     1.0000 0.46849  0.83020  0.33867  Biso   1.000  Hf
  Hf47     1.0000 0.46466  0.83123  0.83270  Biso   1.000  Hf
  Hf48     1.0000 0.28163  0.12523  0.29907  Biso   1.000  Hf
  Hf49     1.0000 0.27374  0.12281  0.78910  Biso   1.000  Hf
  Hf50     1.0000 0.27610  0.61690  0.29413  Biso   1.000  Hf
  Hf51     1.0000 0.27275  0.62119  0.79321  Biso   1.000  Hf
  Hf52     1.0000 0.28607  0.13589  0.02986  Biso   1.000  Hf
  Hf53     1.0000 0.27410  0.12331  0.54417  Biso   1.000  Hf
  Hf54     1.0000 0.27525  0.63329  0.04296  Biso   1.000  Hf
  Hf55     1.0000 0.27405  0.62360  0.54404  Biso   1.000  Hf
  Hf56     1.0000 0.21984  0.37108  0.29257  Biso   1.000  Hf
  Hf57     1.0000 0.22236  0.37333  0.79252  Biso   1.000  Hf
  Hf58     1.0000 0.23010  0.86009  0.29997  Biso   1.000  Hf
  Hf59     1.0000 0.21994  0.87211  0.80195  Biso   1.000  Hf
  Hf60     1.0000 0.22186  0.38289  0.04266  Biso   1.000  Hf
  Hf61     1.0000 0.22187  0.37387  0.54336  Biso   1.000  Hf
  Hf62     1.0000 0.22005  0.87419  0.54870  Biso   1.000  Hf
  Hf63     1.0000 0.53142  0.16525  0.16453  Biso   1.000  Hf
  Hf64     1.0000 0.53205  0.16514  0.66550  Biso   1.000  Hf
  Hf65     1.0000 0.53555  0.66181  0.16782  Biso   1.000  Hf
  Hf66     1.0000 0.52970  0.66385  0.66487  Biso   1.000  Hf
  Hf67     1.0000 0.53320  0.08079  0.41591  Biso   1.000  Hf
  Hf68     1.0000 0.53795  0.07809  0.91178  Biso   1.000  Hf
  Hf69     1.0000 0.53146  0.58100  0.41563  Biso   1.000  Hf
  Hf70     1.0000 0.53020  0.58208  0.91658  Biso   1.000  Hf
  Hf71     1.0000 0.96146  0.42414  0.16191  Biso   1.000  Hf
  Hf72     1.0000 0.96307  0.41786  0.66265  Biso   1.000  Hf
  Hf73     1.0000 0.93602  0.91582  0.16839  Biso   1.000  Hf
  Hf74     1.0000 0.96269  0.91456  0.66907  Biso   1.000  Hf
  Hf75     1.0000 0.96452  0.33156  0.41443  Biso   1.000  Hf
  Hf76     1.0000 0.95960  0.33202  0.90937  Biso   1.000  Hf
  Hf77     1.0000 0.96379  0.83136  0.41685  Biso   1.000  Hf
  Hf78     1.0000 0.96669  0.83617  0.92204  Biso   1.000  Hf
  Hf79     1.0000 0.77374  0.12067  0.95810  Biso   1.000  Hf
  Hf80     1.0000 0.77161  0.12440  0.45820  Biso   1.000  Hf
  Hf81     1.0000 0.77247  0.61940  0.95353  Biso   1.000  Hf
  Hf82     1.0000 0.77548  0.62199  0.45601  Biso   1.000  Hf
  Hf83     1.0000 0.77272  0.12564  0.20675  Biso   1.000  Hf
  Hf84     1.0000 0.77562  0.12458  0.70727  Biso   1.000  Hf
  Hf85     1.0000 0.77544  0.62550  0.20585  Biso   1.000  Hf
  Hf86     1.0000 0.77249  0.62472  0.70421  Biso   1.000  Hf
  Hf87     1.0000 0.71928  0.37165  0.95358  Biso   1.000  Hf
  Hf88     1.0000 0.72197  0.37303  0.45445  Biso   1.000  Hf
  Hf89     1.0000 0.71842  0.86972  0.95621  Biso   1.000  Hf
  Hf90     1.0000 0.72146  0.87198  0.45889  Biso   1.000  Hf
  Hf91     1.0000 0.72212  0.37526  0.20524  Biso   1.000  Hf
  Hf92     1.0000 0.72140  0.37385  0.70381  Biso   1.000  Hf
  Hf93     1.0000 0.70445  0.87460  0.20701  Biso   1.000  Hf
  Hf94     1.0000 0.72101  0.87455  0.70708  Biso   1.000  Hf
