data_image0
_cell_length_a       10.1477
_cell_length_b       10.3231
_cell_length_c       10.4542
_cell_angle_alpha    90
_cell_angle_beta     80
_cell_angle_gamma    90

_symmetry_space_group_name_H-M    "P 1"
_symmetry_int_tables_number       1

loop_
  _symmetry_equiv_pos_as_xyz
  'x, y, z'

loop_
  _atom_site_label
  _atom_site_occupancy
  _atom_site_fract_x
  _atom_site_fract_y
  _atom_site_fract_z
  _atom_site_thermal_displace_type
  _atom_site_B_iso_or_equiv
  _atom_site_type_symbol
  La1      1.0000 0.13506  0.01489  0.14325  Biso   1.000  La
  Hf1      1.0000 0.13078  0.01827  0.64615  Biso   1.000  Hf
  Hf2      1.0000 0.13316  0.52075  0.14367  Biso   1.000  Hf
  Hf3      1.0000 0.12807  0.51821  0.64717  Biso   1.000  Hf
  Hf4      1.0000 0.63696  0.02010  0.14694  Biso   1.000  Hf
  Hf5      1.0000 0.63106  0.01931  0.64799  Biso   1.000  Hf
  Hf6      1.0000 0.63645  0.51986  0.14633  Biso   1.000  Hf
  Hf7      1.0000 0.62865  0.51881  0.64718  Biso   1.000  Hf
  Hf8      1.0000 0.12511  0.23045  0.40484  Biso   1.000  Hf
  Hf9      1.0000 0.12550  0.22799  0.89449  Biso   1.000  Hf
  Hf10     1.0000 0.13177  0.72315  0.39802  Biso   1.000  Hf
  Hf11     1.0000 0.12670  0.72523  0.89675  Biso   1.000  Hf
  Hf12     1.0000 0.63264  0.22786  0.39700  Biso   1.000  Hf
  Hf13     1.0000 0.62964  0.22458  0.89747  Biso   1.000  Hf
  Hf14     1.0000 0.63201  0.72431  0.39793  Biso   1.000  Hf
  Hf15     1.0000 0.62779  0.72567  0.89630  Biso   1.000  Hf
  Hf16     1.0000 0.36459  0.27657  0.09388  Biso   1.000  Hf
  Hf17     1.0000 0.35321  0.26839  0.60320  Biso   1.000  Hf
  Hf18     1.0000 0.36229  0.76623  0.10295  Biso   1.000  Hf
  Hf19     1.0000 0.35043  0.76692  0.60757  Biso   1.000  Hf
  Hf20     1.0000 0.85772  0.27231  0.10300  Biso   1.000  Hf
  Hf21     1.0000 0.85049  0.26971  0.60851  Biso   1.000  Hf
  Hf22     1.0000 0.85319  0.76844  0.10545  Biso   1.000  Hf
  Hf23     1.0000 0.85263  0.76891  0.60568  Biso   1.000  Hf
  Hf24     1.0000 0.35525  0.47493  0.35285  Biso   1.000  Hf
  Hf25     1.0000 0.34946  0.47673  0.85348  Biso   1.000  Hf
  Hf26     1.0000 0.35976  0.96903  0.36033  Biso   1.000  Hf
  Hf27     1.0000 0.35091  0.97457  0.85363  Biso   1.000  Hf
  Hf28     1.0000 0.85404  0.47750  0.35558  Biso   1.000  Hf
  Hf29     1.0000 0.84902  0.47635  0.85480  Biso   1.000  Hf
  Hf30     1.0000 0.84927  0.97648  0.35979  Biso   1.000  Hf
  Hf31     1.0000 0.84959  0.97450  0.85748  Biso   1.000  Hf
  Hf32     1.0000 0.03511  0.19031  0.07633  Biso   1.000  Hf
  Hf33     1.0000 0.02939  0.17478  0.59297  Biso   1.000  Hf
  Hf34     1.0000 0.03526  0.67400  0.08361  Biso   1.000  Hf
  Hf35     1.0000 0.02819  0.66939  0.58432  Biso   1.000  Hf
  Hf36     1.0000 0.53395  0.16924  0.07955  Biso   1.000  Hf
  Hf37     1.0000 0.52632  0.16521  0.58046  Biso   1.000  Hf
  Hf38     1.0000 0.53681  0.66970  0.08073  Biso   1.000  Hf
  Hf39     1.0000 0.52639  0.66569  0.58251  Biso   1.000  Hf
  Hf40     1.0000 0.02557  0.07942  0.35005  Biso   1.000  Hf
  Hf41     1.0000 0.02949  0.07174  0.83645  Biso   1.000  Hf
  Hf42     1.0000 0.03266  0.57340  0.33277  Biso   1.000  Hf
  Hf43     1.0000 0.02524  0.57430  0.83349  Biso   1.000  Hf
  Hf44     1.0000 0.53003  0.07983  0.33079  Biso   1.000  Hf
  Hf45     1.0000 0.52740  0.07883  0.82999  Biso   1.000  Hf
  Hf46     1.0000 0.52901  0.57790  0.33142  Biso   1.000  Hf
  Hf47     1.0000 0.52406  0.57836  0.83106  Biso   1.000  Hf
  Hf48     1.0000 0.46158  0.42095  0.16850  Biso   1.000  Hf
  Hf49     1.0000 0.45466  0.41546  0.67025  Biso   1.000  Hf
  Hf50     1.0000 0.45482  0.92419  0.16910  Biso   1.000  Hf
  Hf51     1.0000 0.45452  0.91522  0.67082  Biso   1.000  Hf
  Hf52     1.0000 0.95584  0.42487  0.16826  Biso   1.000  Hf
  Hf53     1.0000 0.95138  0.42214  0.66766  Biso   1.000  Hf
  Hf54     1.0000 0.93287  0.92195  0.17495  Biso   1.000  Hf
  Hf55     1.0000 0.95269  0.91873  0.67077  Biso   1.000  Hf
  Hf56     1.0000 0.45736  0.32804  0.41952  Biso   1.000  Hf
  Hf57     1.0000 0.45682  0.33191  0.91983  Biso   1.000  Hf
  Hf58     1.0000 0.45703  0.82523  0.42420  Biso   1.000  Hf
  Hf59     1.0000 0.45923  0.83020  0.92180  Biso   1.000  Hf
  Hf60     1.0000 0.95280  0.32905  0.42295  Biso   1.000  Hf
  Hf61     1.0000 0.94720  0.32501  0.91355  Biso   1.000  Hf
  Hf62     1.0000 0.95614  0.82574  0.41895  Biso   1.000  Hf
  Hf63     1.0000 0.95090  0.82563  0.92324  Biso   1.000  Hf
  Hf64     1.0000 0.26729  0.12553  0.73642  Biso   1.000  Hf
  Hf65     1.0000 0.27140  0.61951  0.23867  Biso   1.000  Hf
  Hf66     1.0000 0.26528  0.62575  0.74207  Biso   1.000  Hf
  Hf67     1.0000 0.77086  0.13005  0.24309  Biso   1.000  Hf
  Hf68     1.0000 0.76847  0.12617  0.74374  Biso   1.000  Hf
  Hf69     1.0000 0.77098  0.62791  0.24268  Biso   1.000  Hf
  Hf70     1.0000 0.76565  0.62682  0.74118  Biso   1.000  Hf
  Hf71     1.0000 0.26840  0.11798  0.48247  Biso   1.000  Hf
  Hf72     1.0000 0.27420  0.12501  0.98217  Biso   1.000  Hf
  Hf73     1.0000 0.26875  0.61739  0.49126  Biso   1.000  Hf
  Hf74     1.0000 0.26302  0.61491  0.99167  Biso   1.000  Hf
  Hf75     1.0000 0.76686  0.12011  0.49470  Biso   1.000  Hf
  Hf76     1.0000 0.76335  0.11598  0.99342  Biso   1.000  Hf
  Hf77     1.0000 0.76879  0.61839  0.49208  Biso   1.000  Hf
  Hf78     1.0000 0.76267  0.61559  0.99226  Biso   1.000  Hf
  Hf79     1.0000 0.22376  0.38283  0.00516  Biso   1.000  Hf
  Hf80     1.0000 0.21587  0.37838  0.50958  Biso   1.000  Hf
  Hf81     1.0000 0.22402  0.86220  0.99882  Biso   1.000  Hf
  Hf82     1.0000 0.21573  0.87551  0.51347  Biso   1.000  Hf
  Hf83     1.0000 0.72146  0.38015  0.00906  Biso   1.000  Hf
  Hf84     1.0000 0.71403  0.37735  0.51117  Biso   1.000  Hf
  Hf85     1.0000 0.72167  0.87896  0.00982  Biso   1.000  Hf
  Hf86     1.0000 0.71499  0.87641  0.51228  Biso   1.000  Hf
  Hf87     1.0000 0.22335  0.35292  0.25598  Biso   1.000  Hf
  Hf88     1.0000 0.21356  0.36839  0.75820  Biso   1.000  Hf
  Hf89     1.0000 0.23085  0.85618  0.26692  Biso   1.000  Hf
  Hf90     1.0000 0.21167  0.86754  0.75899  Biso   1.000  Hf
  Hf91     1.0000 0.71778  0.37083  0.26091  Biso   1.000  Hf
  Hf92     1.0000 0.71252  0.36741  0.76069  Biso   1.000  Hf
  Hf93     1.0000 0.70406  0.86768  0.26410  Biso   1.000  Hf
  Hf94     1.0000 0.71417  0.86809  0.76098  Biso   1.000  Hf
