data_image0
_cell_length_a       10.1251
_cell_length_b       10.3065
_cell_length_c       10.4447
_cell_angle_alpha    90
_cell_angle_beta     80
_cell_angle_gamma    90

_symmetry_space_group_name_H-M    "P 1"
_symmetry_int_tables_number       1

loop_
  _symmetry_equiv_pos_as_xyz
  'x, y, z'

loop_
  _atom_site_label
  _atom_site_occupancy
  _atom_site_fract_x
  _atom_site_fract_y
  _atom_site_fract_z
  _atom_site_thermal_displace_type
  _atom_site_B_iso_or_equiv
  _atom_site_type_symbol
  La1      1.0000 0.11493  0.00215  0.13699  Biso   1.000  La
  Hf1      1.0000 0.13114  0.02038  0.64661  Biso   1.000  Hf
  Hf2      1.0000 0.13434  0.52038  0.14539  Biso   1.000  Hf
  Hf3      1.0000 0.12906  0.52137  0.64638  Biso   1.000  Hf
  Hf4      1.0000 0.63802  0.02201  0.14545  Biso   1.000  Hf
  Hf5      1.0000 0.62881  0.02158  0.65013  Biso   1.000  Hf
  Hf6      1.0000 0.63088  0.51631  0.14797  Biso   1.000  Hf
  Hf7      1.0000 0.62734  0.51948  0.64635  Biso   1.000  Hf
  Hf8      1.0000 0.13059  0.22374  0.39502  Biso   1.000  Hf
  Hf9      1.0000 0.12588  0.23074  0.89542  Biso   1.000  Hf
  Hf10     1.0000 0.13093  0.72582  0.39573  Biso   1.000  Hf
  Hf11     1.0000 0.12746  0.72850  0.89789  Biso   1.000  Hf
  Hf12     1.0000 0.63017  0.22886  0.39782  Biso   1.000  Hf
  Hf13     1.0000 0.62586  0.22866  0.89814  Biso   1.000  Hf
  Hf14     1.0000 0.62841  0.72558  0.39728  Biso   1.000  Hf
  Hf15     1.0000 0.62629  0.72698  0.89550  Biso   1.000  Hf
  Hf16     1.0000 0.35404  0.26526  0.10402  Biso   1.000  Hf
  Hf17     1.0000 0.35040  0.26966  0.60436  Biso   1.000  Hf
  Hf18     1.0000 0.36350  0.76729  0.10352  Biso   1.000  Hf
  Hf19     1.0000 0.34987  0.77060  0.60403  Biso   1.000  Hf
  Hf20     1.0000 0.85740  0.27442  0.10298  Biso   1.000  Hf
  Hf21     1.0000 0.85338  0.27140  0.60629  Biso   1.000  Hf
  Hf22     1.0000 0.84960  0.76278  0.10546  Biso   1.000  Hf
  Hf23     1.0000 0.85109  0.76951  0.60454  Biso   1.000  Hf
  Hf24     1.0000 0.35093  0.47519  0.35380  Biso   1.000  Hf
  Hf25     1.0000 0.34933  0.47588  0.85572  Biso   1.000  Hf
  Hf26     1.0000 0.35236  0.97804  0.35295  Biso   1.000  Hf
  Hf27     1.0000 0.34895  0.97669  0.85431  Biso   1.000  Hf
  Hf28     1.0000 0.85458  0.47732  0.35554  Biso   1.000  Hf
  Hf29     1.0000 0.84826  0.47808  0.85396  Biso   1.000  Hf
  Hf30     1.0000 0.84165  0.98110  0.36721  Biso   1.000  Hf
  Hf31     1.0000 0.84744  0.97883  0.85749  Biso   1.000  Hf
  Hf32     1.0000 0.03385  0.18942  0.07821  Biso   1.000  Hf
  Hf33     1.0000 0.02818  0.17076  0.58518  Biso   1.000  Hf
  Hf34     1.0000 0.03638  0.68349  0.09079  Biso   1.000  Hf
  Hf35     1.0000 0.02625  0.67033  0.58157  Biso   1.000  Hf
  Hf36     1.0000 0.53444  0.16865  0.08059  Biso   1.000  Hf
  Hf37     1.0000 0.52539  0.16815  0.58227  Biso   1.000  Hf
  Hf38     1.0000 0.53693  0.66632  0.07847  Biso   1.000  Hf
  Hf39     1.0000 0.52493  0.66738  0.58066  Biso   1.000  Hf
  Hf40     1.0000 0.01916  0.07735  0.34406  Biso   1.000  Hf
  Hf41     1.0000 0.02632  0.07924  0.83349  Biso   1.000  Hf
  Hf42     1.0000 0.03054  0.57616  0.33304  Biso   1.000  Hf
  Hf43     1.0000 0.02108  0.58350  0.83321  Biso   1.000  Hf
  Hf44     1.0000 0.53512  0.07669  0.33126  Biso   1.000  Hf
  Hf45     1.0000 0.52692  0.07928  0.83204  Biso   1.000  Hf
  Hf46     1.0000 0.52614  0.57807  0.33148  Biso   1.000  Hf
  Hf47     1.0000 0.52373  0.57866  0.83109  Biso   1.000  Hf
  Hf48     1.0000 0.45775  0.41498  0.17077  Biso   1.000  Hf
  Hf49     1.0000 0.45301  0.41777  0.67024  Biso   1.000  Hf
  Hf50     1.0000 0.46292  0.91689  0.16996  Biso   1.000  Hf
  Hf51     1.0000 0.45235  0.91743  0.67104  Biso   1.000  Hf
  Hf52     1.0000 0.95408  0.42899  0.16609  Biso   1.000  Hf
  Hf53     1.0000 0.95286  0.42253  0.66897  Biso   1.000  Hf
  Hf54     1.0000 0.95290  0.91575  0.67440  Biso   1.000  Hf
  Hf55     1.0000 0.45537  0.32776  0.41968  Biso   1.000  Hf
  Hf56     1.0000 0.45123  0.32875  0.92161  Biso   1.000  Hf
  Hf57     1.0000 0.45668  0.82994  0.42073  Biso   1.000  Hf
  Hf58     1.0000 0.45961  0.83171  0.92097  Biso   1.000  Hf
  Hf59     1.0000 0.95490  0.32773  0.41944  Biso   1.000  Hf
  Hf60     1.0000 0.94735  0.32992  0.91586  Biso   1.000  Hf
  Hf61     1.0000 0.95354  0.82869  0.41468  Biso   1.000  Hf
  Hf62     1.0000 0.95899  0.84662  0.94277  Biso   1.000  Hf
  Hf63     1.0000 0.27348  0.12831  0.24468  Biso   1.000  Hf
  Hf64     1.0000 0.26638  0.12814  0.73933  Biso   1.000  Hf
  Hf65     1.0000 0.27215  0.62312  0.23914  Biso   1.000  Hf
  Hf66     1.0000 0.26500  0.62864  0.74151  Biso   1.000  Hf
  Hf67     1.0000 0.77549  0.12788  0.24190  Biso   1.000  Hf
  Hf68     1.0000 0.76799  0.12884  0.74379  Biso   1.000  Hf
  Hf69     1.0000 0.76654  0.62543  0.24283  Biso   1.000  Hf
  Hf70     1.0000 0.76465  0.62882  0.74045  Biso   1.000  Hf
  Hf71     1.0000 0.26826  0.11891  0.49130  Biso   1.000  Hf
  Hf72     1.0000 0.26671  0.12181  0.98328  Biso   1.000  Hf
  Hf73     1.0000 0.26681  0.61930  0.49085  Biso   1.000  Hf
  Hf74     1.0000 0.25961  0.61575  0.99166  Biso   1.000  Hf
  Hf75     1.0000 0.76446  0.12182  0.49694  Biso   1.000  Hf
  Hf76     1.0000 0.76298  0.11983  0.99325  Biso   1.000  Hf
  Hf77     1.0000 0.76700  0.61971  0.49116  Biso   1.000  Hf
  Hf78     1.0000 0.76545  0.62031  0.99259  Biso   1.000  Hf
  Hf79     1.0000 0.22244  0.38005  0.00795  Biso   1.000  Hf
  Hf80     1.0000 0.21357  0.37814  0.50925  Biso   1.000  Hf
  Hf81     1.0000 0.22708  0.86392  0.99847  Biso   1.000  Hf
  Hf82     1.0000 0.21372  0.87837  0.50945  Biso   1.000  Hf
  Hf83     1.0000 0.72022  0.38180  0.00817  Biso   1.000  Hf
  Hf84     1.0000 0.71465  0.37840  0.51067  Biso   1.000  Hf
  Hf85     1.0000 0.72328  0.87851  0.00952  Biso   1.000  Hf
  Hf86     1.0000 0.71034  0.87729  0.51414  Biso   1.000  Hf
  Hf87     1.0000 0.21402  0.36831  0.25776  Biso   1.000  Hf
  Hf88     1.0000 0.21138  0.37162  0.75937  Biso   1.000  Hf
  Hf89     1.0000 0.22721  0.85876  0.26127  Biso   1.000  Hf
  Hf90     1.0000 0.20954  0.86969  0.75881  Biso   1.000  Hf
  Hf91     1.0000 0.71693  0.36876  0.26066  Biso   1.000  Hf
  Hf92     1.0000 0.71193  0.36993  0.76003  Biso   1.000  Hf
  Hf93     1.0000 0.72606  0.86777  0.25835  Biso   1.000  Hf
  Hf94     1.0000 0.71360  0.86980  0.76149  Biso   1.000  Hf
