data_image0
_cell_length_a       10.0614
_cell_length_b       10.1572
_cell_length_c       10.0625
_cell_angle_alpha    90
_cell_angle_beta     90
_cell_angle_gamma    90

_symmetry_space_group_name_H-M    "P 1"
_symmetry_int_tables_number       1

loop_
  _symmetry_equiv_pos_as_xyz
  'x, y, z'

loop_
  _atom_site_label
  _atom_site_occupancy
  _atom_site_fract_x
  _atom_site_fract_y
  _atom_site_fract_z
  _atom_site_thermal_displace_type
  _atom_site_B_iso_or_equiv
  _atom_site_type_symbol
  La1      1.0000 0.10357  0.99009  0.13714  Biso   1.000  La
  Hf1      1.0000 0.11033  0.00514  0.62101  Biso   1.000  Hf
  Hf2      1.0000 0.12203  0.50635  0.12178  Biso   1.000  Hf
  Hf3      1.0000 0.09695  0.50216  0.62413  Biso   1.000  Hf
  Hf4      1.0000 0.62589  0.00230  0.12391  Biso   1.000  Hf
  Hf5      1.0000 0.59822  0.01217  0.63526  Biso   1.000  Hf
  Hf6      1.0000 0.61932  0.49927  0.13413  Biso   1.000  Hf
  Hf7      1.0000 0.59933  0.49613  0.63139  Biso   1.000  Hf
  Hf8      1.0000 0.10929  0.25775  0.37375  Biso   1.000  Hf
  Hf9      1.0000 0.09546  0.25137  0.87792  Biso   1.000  Hf
  Hf10     1.0000 0.12949  0.74875  0.37592  Biso   1.000  Hf
  Hf11     1.0000 0.09795  0.75775  0.86612  Biso   1.000  Hf
  Hf12     1.0000 0.61094  0.24924  0.37973  Biso   1.000  Hf
  Hf13     1.0000 0.59637  0.25859  0.88479  Biso   1.000  Hf
  Hf14     1.0000 0.61096  0.74130  0.38537  Biso   1.000  Hf
  Hf15     1.0000 0.58855  0.74800  0.87739  Biso   1.000  Hf
  Hf16     1.0000 0.36702  0.24699  0.13043  Biso   1.000  Hf
  Hf17     1.0000 0.34729  0.25714  0.62919  Biso   1.000  Hf
  Hf18     1.0000 0.37615  0.75367  0.12545  Biso   1.000  Hf
  Hf19     1.0000 0.35172  0.74675  0.63407  Biso   1.000  Hf
  Hf20     1.0000 0.87153  0.25612  0.12943  Biso   1.000  Hf
  Hf21     1.0000 0.85270  0.25041  0.62771  Biso   1.000  Hf
  Hf22     1.0000 0.86666  0.74725  0.10647  Biso   1.000  Hf
  Hf23     1.0000 0.84418  0.74273  0.62458  Biso   1.000  Hf
  Hf24     1.0000 0.36480  0.01081  0.38928  Biso   1.000  Hf
  Hf25     1.0000 0.34319  0.00816  0.88392  Biso   1.000  Hf
  Hf26     1.0000 0.35890  0.50180  0.37437  Biso   1.000  Hf
  Hf27     1.0000 0.34365  0.49937  0.88050  Biso   1.000  Hf
  Hf28     1.0000 0.86234  0.01572  0.37778  Biso   1.000  Hf
  Hf29     1.0000 0.83818  0.01343  0.87487  Biso   1.000  Hf
  Hf30     1.0000 0.87186  0.52190  0.36564  Biso   1.000  Hf
  Hf31     1.0000 0.84993  0.50483  0.87825  Biso   1.000  Hf
  Hf32     1.0000 0.96240  0.15145  0.99873  Biso   1.000  Hf
  Hf33     1.0000 0.98427  0.14607  0.51038  Biso   1.000  Hf
  Hf34     1.0000 0.98073  0.64123  0.99737  Biso   1.000  Hf
  Hf35     1.0000 0.98911  0.65181  0.49914  Biso   1.000  Hf
  Hf36     1.0000 0.50330  0.14246  0.01451  Biso   1.000  Hf
  Hf37     1.0000 0.48274  0.15045  0.51254  Biso   1.000  Hf
  Hf38     1.0000 0.50668  0.63999  0.01347  Biso   1.000  Hf
  Hf39     1.0000 0.48686  0.64819  0.51555  Biso   1.000  Hf
  Hf40     1.0000 0.98096  0.14059  0.26167  Biso   1.000  Hf
  Hf41     1.0000 0.97327  0.10101  0.75224  Biso   1.000  Hf
  Hf42     1.0000 0.99188  0.63508  0.24816  Biso   1.000  Hf
  Hf43     1.0000 0.96268  0.60743  0.74833  Biso   1.000  Hf
  Hf44     1.0000 0.49078  0.09803  0.25711  Biso   1.000  Hf
  Hf45     1.0000 0.46986  0.10950  0.76010  Biso   1.000  Hf
  Hf46     1.0000 0.49126  0.60460  0.26462  Biso   1.000  Hf
  Hf47     1.0000 0.46503  0.60637  0.76165  Biso   1.000  Hf
  Hf48     1.0000 0.99339  0.38398  0.24741  Biso   1.000  Hf
  Hf49     1.0000 0.97674  0.35826  0.74815  Biso   1.000  Hf
  Hf50     1.0000 0.00054  0.84640  0.69422  Biso   1.000  Hf
  Hf51     1.0000 0.49265  0.35533  0.25179  Biso   1.000  Hf
  Hf52     1.0000 0.47539  0.35796  0.75280  Biso   1.000  Hf
  Hf53     1.0000 0.54476  0.84363  0.22656  Biso   1.000  Hf
  Hf54     1.0000 0.48666  0.85801  0.73905  Biso   1.000  Hf
  Hf55     1.0000 0.98881  0.38884  0.00108  Biso   1.000  Hf
  Hf56     1.0000 0.96202  0.39777  0.50047  Biso   1.000  Hf
  Hf57     1.0000 0.95773  0.88210  0.96015  Biso   1.000  Hf
  Hf58     1.0000 0.02863  0.91873  0.41194  Biso   1.000  Hf
  Hf59     1.0000 0.48840  0.39131  0.00530  Biso   1.000  Hf
  Hf60     1.0000 0.46509  0.39767  0.50619  Biso   1.000  Hf
  Hf61     1.0000 0.46213  0.89841  0.99447  Biso   1.000  Hf
  Hf62     1.0000 0.50652  0.90057  0.48297  Biso   1.000  Hf
  Hf63     1.0000 0.24360  0.14730  0.26094  Biso   1.000  Hf
  Hf64     1.0000 0.21578  0.14665  0.74528  Biso   1.000  Hf
  Hf65     1.0000 0.24263  0.63683  0.23927  Biso   1.000  Hf
  Hf66     1.0000 0.21380  0.64424  0.73861  Biso   1.000  Hf
  Hf67     1.0000 0.73239  0.14498  0.25160  Biso   1.000  Hf
  Hf68     1.0000 0.71732  0.15186  0.75289  Biso   1.000  Hf
  Hf69     1.0000 0.74077  0.65047  0.24421  Biso   1.000  Hf
  Hf70     1.0000 0.71144  0.64961  0.74595  Biso   1.000  Hf
  Hf71     1.0000 0.22666  0.12242  0.99650  Biso   1.000  Hf
  Hf72     1.0000 0.23638  0.11668  0.50101  Biso   1.000  Hf
  Hf73     1.0000 0.22719  0.61589  0.99260  Biso   1.000  Hf
  Hf74     1.0000 0.23542  0.60959  0.49458  Biso   1.000  Hf
  Hf75     1.0000 0.72227  0.11933  0.99948  Biso   1.000  Hf
  Hf76     1.0000 0.73204  0.10212  0.50404  Biso   1.000  Hf
  Hf77     1.0000 0.72566  0.61231  0.99805  Biso   1.000  Hf
  Hf78     1.0000 0.73299  0.59644  0.50057  Biso   1.000  Hf
  Hf79     1.0000 0.23551  0.35951  0.01241  Biso   1.000  Hf
  Hf80     1.0000 0.21352  0.36294  0.51454  Biso   1.000  Hf
  Hf81     1.0000 0.24484  0.85194  0.00045  Biso   1.000  Hf
  Hf82     1.0000 0.24510  0.86447  0.51280  Biso   1.000  Hf
  Hf83     1.0000 0.73286  0.35993  0.02155  Biso   1.000  Hf
  Hf84     1.0000 0.70472  0.34486  0.52981  Biso   1.000  Hf
  Hf85     1.0000 0.70676  0.86695  0.98606  Biso   1.000  Hf
  Hf86     1.0000 0.76912  0.84526  0.46382  Biso   1.000  Hf
  Hf87     1.0000 0.23940  0.39044  0.25923  Biso   1.000  Hf
  Hf88     1.0000 0.22266  0.39564  0.75927  Biso   1.000  Hf
  Hf89     1.0000 0.27766  0.87803  0.26257  Biso   1.000  Hf
  Hf90     1.0000 0.23039  0.89702  0.75702  Biso   1.000  Hf
  Hf91     1.0000 0.73936  0.39685  0.27337  Biso   1.000  Hf
  Hf92     1.0000 0.72121  0.39928  0.76980  Biso   1.000  Hf
  Hf93     1.0000 0.82670  0.91783  0.20514  Biso   1.000  Hf
  Hf94     1.0000 0.74301  0.90212  0.72530  Biso   1.000  Hf
