data_image0
_cell_length_a       9.98147
_cell_length_b       10.3813
_cell_length_c       10.031
_cell_angle_alpha    90
_cell_angle_beta     90
_cell_angle_gamma    90

_symmetry_space_group_name_H-M    "P 1"
_symmetry_int_tables_number       1

loop_
  _symmetry_equiv_pos_as_xyz
  'x, y, z'

loop_
  _atom_site_label
  _atom_site_occupancy
  _atom_site_fract_x
  _atom_site_fract_y
  _atom_site_fract_z
  _atom_site_thermal_displace_type
  _atom_site_B_iso_or_equiv
  _atom_site_type_symbol
  La1      1.0000 0.11311  0.00011  0.12644  Biso   1.000  La
  Hf1      1.0000 0.13264  0.01551  0.62542  Biso   1.000  Hf
  Hf2      1.0000 0.13336  0.51660  0.12524  Biso   1.000  Hf
  Hf3      1.0000 0.13352  0.51602  0.62611  Biso   1.000  Hf
  Hf4      1.0000 0.63551  0.01595  0.12447  Biso   1.000  Hf
  Hf5      1.0000 0.63034  0.01615  0.62713  Biso   1.000  Hf
  Hf6      1.0000 0.63038  0.51263  0.12589  Biso   1.000  Hf
  Hf7      1.0000 0.63177  0.51462  0.62496  Biso   1.000  Hf
  Hf8      1.0000 0.13396  0.23265  0.37638  Biso   1.000  Hf
  Hf9      1.0000 0.13328  0.23288  0.87242  Biso   1.000  Hf
  Hf10     1.0000 0.13396  0.73272  0.37866  Biso   1.000  Hf
  Hf11     1.0000 0.13503  0.73251  0.87704  Biso   1.000  Hf
  Hf12     1.0000 0.63163  0.23254  0.37449  Biso   1.000  Hf
  Hf13     1.0000 0.63220  0.23284  0.87585  Biso   1.000  Hf
  Hf14     1.0000 0.63204  0.73226  0.37636  Biso   1.000  Hf
  Hf15     1.0000 0.63116  0.73075  0.87378  Biso   1.000  Hf
  Hf16     1.0000 0.36236  0.26264  0.12657  Biso   1.000  Hf
  Hf17     1.0000 0.36408  0.26480  0.62544  Biso   1.000  Hf
  Hf18     1.0000 0.36956  0.76319  0.12476  Biso   1.000  Hf
  Hf19     1.0000 0.36432  0.76617  0.62609  Biso   1.000  Hf
  Hf20     1.0000 0.86446  0.26959  0.12507  Biso   1.000  Hf
  Hf21     1.0000 0.86559  0.26746  0.62478  Biso   1.000  Hf
  Hf22     1.0000 0.85860  0.75668  0.12331  Biso   1.000  Hf
  Hf23     1.0000 0.86486  0.76357  0.62431  Biso   1.000  Hf
  Hf24     1.0000 0.36401  0.48183  0.37564  Biso   1.000  Hf
  Hf25     1.0000 0.36464  0.48059  0.87641  Biso   1.000  Hf
  Hf26     1.0000 0.36517  0.98299  0.37528  Biso   1.000  Hf
  Hf27     1.0000 0.36488  0.98312  0.87592  Biso   1.000  Hf
  Hf28     1.0000 0.86519  0.48250  0.37616  Biso   1.000  Hf
  Hf29     1.0000 0.86501  0.48139  0.87475  Biso   1.000  Hf
  Hf30     1.0000 0.85723  0.98421  0.38587  Biso   1.000  Hf
  Hf31     1.0000 0.86007  0.98182  0.87166  Biso   1.000  Hf
  Hf32     1.0000 0.02806  0.19392  0.20132  Biso   1.000  Hf
  Hf33     1.0000 0.03861  0.18713  0.68276  Biso   1.000  Hf
  Hf34     1.0000 0.03656  0.69739  0.19436  Biso   1.000  Hf
  Hf35     1.0000 0.03446  0.68414  0.69588  Biso   1.000  Hf
  Hf36     1.0000 0.53830  0.18408  0.19167  Biso   1.000  Hf
  Hf37     1.0000 0.53403  0.18312  0.69504  Biso   1.000  Hf
  Hf38     1.0000 0.53815  0.68254  0.19515  Biso   1.000  Hf
  Hf39     1.0000 0.53396  0.68188  0.69427  Biso   1.000  Hf
  Hf40     1.0000 0.03730  0.06036  0.43478  Biso   1.000  Hf
  Hf41     1.0000 0.02960  0.07081  0.91882  Biso   1.000  Hf
  Hf42     1.0000 0.03457  0.56587  0.44556  Biso   1.000  Hf
  Hf43     1.0000 0.03125  0.57014  0.94667  Biso   1.000  Hf
  Hf44     1.0000 0.53670  0.06491  0.44506  Biso   1.000  Hf
  Hf45     1.0000 0.53731  0.06400  0.94382  Biso   1.000  Hf
  Hf46     1.0000 0.53471  0.56479  0.44362  Biso   1.000  Hf
  Hf47     1.0000 0.53318  0.56434  0.94591  Biso   1.000  Hf
  Hf48     1.0000 0.46226  0.43196  0.19552  Biso   1.000  Hf
  Hf49     1.0000 0.46287  0.43258  0.69455  Biso   1.000  Hf
  Hf50     1.0000 0.46950  0.93163  0.19660  Biso   1.000  Hf
  Hf51     1.0000 0.46234  0.93257  0.69579  Biso   1.000  Hf
  Hf52     1.0000 0.96023  0.44188  0.19268  Biso   1.000  Hf
  Hf53     1.0000 0.96351  0.43413  0.69543  Biso   1.000  Hf
  Hf54     1.0000 0.95862  0.93314  0.68910  Biso   1.000  Hf
  Hf55     1.0000 0.46275  0.31415  0.44429  Biso   1.000  Hf
  Hf56     1.0000 0.46272  0.31443  0.94438  Biso   1.000  Hf
  Hf57     1.0000 0.46461  0.81512  0.44804  Biso   1.000  Hf
  Hf58     1.0000 0.46846  0.81578  0.94528  Biso   1.000  Hf
  Hf59     1.0000 0.96255  0.31667  0.44458  Biso   1.000  Hf
  Hf60     1.0000 0.96376  0.31770  0.94521  Biso   1.000  Hf
  Hf61     1.0000 0.96102  0.81581  0.44179  Biso   1.000  Hf
  Hf62     1.0000 0.97205  0.82624  0.96015  Biso   1.000  Hf
  Hf63     1.0000 0.27737  0.12252  0.25461  Biso   1.000  Hf
  Hf64     1.0000 0.27003  0.11670  0.74820  Biso   1.000  Hf
  Hf65     1.0000 0.26741  0.61352  0.24986  Biso   1.000  Hf
  Hf66     1.0000 0.26895  0.61718  0.75087  Biso   1.000  Hf
  Hf67     1.0000 0.77108  0.11368  0.25037  Biso   1.000  Hf
  Hf68     1.0000 0.76838  0.11740  0.74862  Biso   1.000  Hf
  Hf69     1.0000 0.76755  0.61388  0.24889  Biso   1.000  Hf
  Hf70     1.0000 0.76939  0.61549  0.74781  Biso   1.000  Hf
  Hf71     1.0000 0.26899  0.13001  0.50142  Biso   1.000  Hf
  Hf72     1.0000 0.26949  0.13217  0.99507  Biso   1.000  Hf
  Hf73     1.0000 0.27018  0.63090  0.50086  Biso   1.000  Hf
  Hf74     1.0000 0.27072  0.62946  0.00026  Biso   1.000  Hf
  Hf75     1.0000 0.76890  0.13228  0.50098  Biso   1.000  Hf
  Hf76     1.0000 0.77094  0.13097  0.99939  Biso   1.000  Hf
  Hf77     1.0000 0.76877  0.63123  0.49805  Biso   1.000  Hf
  Hf78     1.0000 0.76735  0.62884  0.99722  Biso   1.000  Hf
  Hf79     1.0000 0.22876  0.38178  0.49997  Biso   1.000  Hf
  Hf80     1.0000 0.22830  0.38305  0.00033  Biso   1.000  Hf
  Hf81     1.0000 0.22795  0.88149  0.50065  Biso   1.000  Hf
  Hf82     1.0000 0.24006  0.87076  0.99349  Biso   1.000  Hf
  Hf83     1.0000 0.72774  0.38136  0.49901  Biso   1.000  Hf
  Hf84     1.0000 0.72704  0.38155  0.99825  Biso   1.000  Hf
  Hf85     1.0000 0.72437  0.87994  0.50262  Biso   1.000  Hf
  Hf86     1.0000 0.73021  0.87935  0.00032  Biso   1.000  Hf
  Hf87     1.0000 0.22646  0.36756  0.24942  Biso   1.000  Hf
  Hf88     1.0000 0.22885  0.36783  0.74876  Biso   1.000  Hf
  Hf89     1.0000 0.24332  0.85620  0.25718  Biso   1.000  Hf
  Hf90     1.0000 0.22632  0.86816  0.74834  Biso   1.000  Hf
  Hf91     1.0000 0.72862  0.36598  0.24960  Biso   1.000  Hf
  Hf92     1.0000 0.72838  0.36661  0.74926  Biso   1.000  Hf
  Hf93     1.0000 0.74023  0.86568  0.25145  Biso   1.000  Hf
  Hf94     1.0000 0.72817  0.86474  0.74960  Biso   1.000  Hf
