data_image0
_cell_length_a       10.0131
_cell_length_b       10.3761
_cell_length_c       10.0132
_cell_angle_alpha    90
_cell_angle_beta     90
_cell_angle_gamma    90

_symmetry_space_group_name_H-M    "P 1"
_symmetry_int_tables_number       1

loop_
  _symmetry_equiv_pos_as_xyz
  'x, y, z'

loop_
  _atom_site_label
  _atom_site_occupancy
  _atom_site_fract_x
  _atom_site_fract_y
  _atom_site_fract_z
  _atom_site_thermal_displace_type
  _atom_site_B_iso_or_equiv
  _atom_site_type_symbol
  La1      1.0000 0.12713  0.00307  0.12645  Biso   1.000  La
  Hf1      1.0000 0.13118  0.01618  0.62234  Biso   1.000  Hf
  Hf2      1.0000 0.13265  0.51825  0.12514  Biso   1.000  Hf
  Hf3      1.0000 0.13358  0.51517  0.62747  Biso   1.000  Hf
  Hf4      1.0000 0.63033  0.01574  0.12687  Biso   1.000  Hf
  Hf5      1.0000 0.63430  0.01746  0.62932  Biso   1.000  Hf
  Hf6      1.0000 0.63381  0.51442  0.12631  Biso   1.000  Hf
  Hf7      1.0000 0.63205  0.51485  0.62685  Biso   1.000  Hf
  Hf8      1.0000 0.13256  0.23491  0.37725  Biso   1.000  Hf
  Hf9      1.0000 0.13276  0.23380  0.87288  Biso   1.000  Hf
  Hf10     1.0000 0.12846  0.72856  0.37896  Biso   1.000  Hf
  Hf11     1.0000 0.13230  0.73271  0.87393  Biso   1.000  Hf
  Hf12     1.0000 0.63278  0.23534  0.37554  Biso   1.000  Hf
  Hf13     1.0000 0.63204  0.23361  0.87735  Biso   1.000  Hf
  Hf14     1.0000 0.63148  0.73186  0.38009  Biso   1.000  Hf
  Hf15     1.0000 0.63478  0.73138  0.87538  Biso   1.000  Hf
  Hf16     1.0000 0.36241  0.26577  0.12681  Biso   1.000  Hf
  Hf17     1.0000 0.36488  0.26542  0.62578  Biso   1.000  Hf
  Hf18     1.0000 0.37562  0.75694  0.11692  Biso   1.000  Hf
  Hf19     1.0000 0.36600  0.76539  0.62287  Biso   1.000  Hf
  Hf20     1.0000 0.86492  0.26765  0.12653  Biso   1.000  Hf
  Hf21     1.0000 0.86560  0.26763  0.62605  Biso   1.000  Hf
  Hf22     1.0000 0.85808  0.76624  0.12952  Biso   1.000  Hf
  Hf23     1.0000 0.86408  0.76569  0.62630  Biso   1.000  Hf
  Hf24     1.0000 0.36390  0.48345  0.37530  Biso   1.000  Hf
  Hf25     1.0000 0.36446  0.48138  0.87651  Biso   1.000  Hf
  Hf26     1.0000 0.37038  0.98918  0.37758  Biso   1.000  Hf
  Hf27     1.0000 0.36466  0.98373  0.87223  Biso   1.000  Hf
  Hf28     1.0000 0.86377  0.48335  0.37640  Biso   1.000  Hf
  Hf29     1.0000 0.86456  0.48235  0.87716  Biso   1.000  Hf
  Hf30     1.0000 0.85716  0.98394  0.38047  Biso   1.000  Hf
  Hf31     1.0000 0.86096  0.98247  0.87558  Biso   1.000  Hf
  Hf32     1.0000 0.02963  0.19674  0.20247  Biso   1.000  Hf
  Hf33     1.0000 0.03841  0.18678  0.68456  Biso   1.000  Hf
  Hf34     1.0000 0.04060  0.69546  0.19248  Biso   1.000  Hf
  Hf35     1.0000 0.03427  0.68361  0.69284  Biso   1.000  Hf
  Hf36     1.0000 0.53437  0.18271  0.19378  Biso   1.000  Hf
  Hf37     1.0000 0.53430  0.18365  0.69601  Biso   1.000  Hf
  Hf38     1.0000 0.53876  0.68123  0.19610  Biso   1.000  Hf
  Hf39     1.0000 0.53420  0.68374  0.69346  Biso   1.000  Hf
  Hf40     1.0000 0.03327  0.06544  0.44016  Biso   1.000  Hf
  Hf41     1.0000 0.03069  0.07185  0.92349  Biso   1.000  Hf
  Hf42     1.0000 0.03537  0.56536  0.44385  Biso   1.000  Hf
  Hf43     1.0000 0.03326  0.56825  0.94372  Biso   1.000  Hf
  Hf44     1.0000 0.53770  0.06638  0.44668  Biso   1.000  Hf
  Hf45     1.0000 0.53597  0.06397  0.94224  Biso   1.000  Hf
  Hf46     1.0000 0.53303  0.56496  0.44612  Biso   1.000  Hf
  Hf47     1.0000 0.53199  0.56713  0.94749  Biso   1.000  Hf
  Hf48     1.0000 0.46324  0.43355  0.19552  Biso   1.000  Hf
  Hf49     1.0000 0.46315  0.43311  0.69547  Biso   1.000  Hf
  Hf50     1.0000 0.44587  0.93399  0.18986  Biso   1.000  Hf
  Hf51     1.0000 0.46096  0.93425  0.69054  Biso   1.000  Hf
  Hf52     1.0000 0.95912  0.44315  0.19190  Biso   1.000  Hf
  Hf53     1.0000 0.96327  0.43453  0.69644  Biso   1.000  Hf
  Hf54     1.0000 0.93384  0.93193  0.20333  Biso   1.000  Hf
  Hf55     1.0000 0.95899  0.93390  0.69217  Biso   1.000  Hf
  Hf56     1.0000 0.46144  0.31522  0.44422  Biso   1.000  Hf
  Hf57     1.0000 0.46376  0.31693  0.94571  Biso   1.000  Hf
  Hf58     1.0000 0.46177  0.81670  0.44348  Biso   1.000  Hf
  Hf59     1.0000 0.46905  0.81604  0.94117  Biso   1.000  Hf
  Hf60     1.0000 0.96185  0.31924  0.44593  Biso   1.000  Hf
  Hf61     1.0000 0.96202  0.31694  0.94552  Biso   1.000  Hf
  Hf62     1.0000 0.95930  0.81461  0.44511  Biso   1.000  Hf
  Hf63     1.0000 0.96715  0.82146  0.95267  Biso   1.000  Hf
  Hf64     1.0000 0.27743  0.12689  0.25785  Biso   1.000  Hf
  Hf65     1.0000 0.26830  0.11622  0.74701  Biso   1.000  Hf
  Hf66     1.0000 0.27047  0.62286  0.24910  Biso   1.000  Hf
  Hf67     1.0000 0.26929  0.61700  0.74914  Biso   1.000  Hf
  Hf68     1.0000 0.76445  0.11862  0.25262  Biso   1.000  Hf
  Hf69     1.0000 0.77008  0.11878  0.75137  Biso   1.000  Hf
  Hf70     1.0000 0.76960  0.61946  0.25164  Biso   1.000  Hf
  Hf71     1.0000 0.76869  0.61660  0.74982  Biso   1.000  Hf
  Hf72     1.0000 0.26880  0.13129  0.50180  Biso   1.000  Hf
  Hf73     1.0000 0.27430  0.13590  0.99244  Biso   1.000  Hf
  Hf74     1.0000 0.26811  0.63130  0.50000  Biso   1.000  Hf
  Hf75     1.0000 0.26774  0.62720  0.99750  Biso   1.000  Hf
  Hf76     1.0000 0.76685  0.13425  0.50236  Biso   1.000  Hf
  Hf77     1.0000 0.76952  0.13037  0.00291  Biso   1.000  Hf
  Hf78     1.0000 0.76930  0.63046  0.50091  Biso   1.000  Hf
  Hf79     1.0000 0.76799  0.63005  0.99989  Biso   1.000  Hf
  Hf80     1.0000 0.22892  0.38285  0.50024  Biso   1.000  Hf
  Hf81     1.0000 0.22857  0.38232  0.00013  Biso   1.000  Hf
  Hf82     1.0000 0.22448  0.88336  0.48244  Biso   1.000  Hf
  Hf83     1.0000 0.23948  0.86879  0.99001  Biso   1.000  Hf
  Hf84     1.0000 0.72698  0.38236  0.49988  Biso   1.000  Hf
  Hf85     1.0000 0.72637  0.38216  0.99948  Biso   1.000  Hf
  Hf86     1.0000 0.72493  0.88072  0.50388  Biso   1.000  Hf
  Hf87     1.0000 0.72913  0.87952  0.00206  Biso   1.000  Hf
  Hf88     1.0000 0.22607  0.37263  0.24998  Biso   1.000  Hf
  Hf89     1.0000 0.22949  0.36776  0.74889  Biso   1.000  Hf
  Hf90     1.0000 0.22617  0.86682  0.74045  Biso   1.000  Hf
  Hf91     1.0000 0.72870  0.36886  0.25055  Biso   1.000  Hf
  Hf92     1.0000 0.72841  0.36740  0.75026  Biso   1.000  Hf
  Hf93     1.0000 0.70965  0.86854  0.25308  Biso   1.000  Hf
  Hf94     1.0000 0.72730  0.86736  0.75138  Biso   1.000  Hf
