data_image0
_cell_length_a       10.0083
_cell_length_b       10.396
_cell_length_c       10.0272
_cell_angle_alpha    90
_cell_angle_beta     90
_cell_angle_gamma    90

_symmetry_space_group_name_H-M    "P 1"
_symmetry_int_tables_number       1

loop_
  _symmetry_equiv_pos_as_xyz
  'x, y, z'

loop_
  _atom_site_label
  _atom_site_occupancy
  _atom_site_fract_x
  _atom_site_fract_y
  _atom_site_fract_z
  _atom_site_thermal_displace_type
  _atom_site_B_iso_or_equiv
  _atom_site_type_symbol
  La1      1.0000 0.12364  0.00955  0.11921  Biso   1.000  La
  Hf1      1.0000 0.13175  0.01784  0.62762  Biso   1.000  Hf
  Hf2      1.0000 0.12897  0.51628  0.12555  Biso   1.000  Hf
  Hf3      1.0000 0.12808  0.51842  0.62584  Biso   1.000  Hf
  Hf4      1.0000 0.63324  0.01542  0.12686  Biso   1.000  Hf
  Hf5      1.0000 0.63320  0.01928  0.62422  Biso   1.000  Hf
  Hf6      1.0000 0.63173  0.51710  0.12649  Biso   1.000  Hf
  Hf7      1.0000 0.62812  0.51720  0.62611  Biso   1.000  Hf
  Hf8      1.0000 0.12962  0.23498  0.37812  Biso   1.000  Hf
  Hf9      1.0000 0.11627  0.24758  0.86282  Biso   1.000  Hf
  Hf10     1.0000 0.12815  0.73460  0.37534  Biso   1.000  Hf
  Hf11     1.0000 0.12863  0.73489  0.87532  Biso   1.000  Hf
  Hf12     1.0000 0.62852  0.23435  0.37543  Biso   1.000  Hf
  Hf13     1.0000 0.62749  0.23574  0.87680  Biso   1.000  Hf
  Hf14     1.0000 0.62698  0.73365  0.37807  Biso   1.000  Hf
  Hf15     1.0000 0.63006  0.73297  0.87422  Biso   1.000  Hf
  Hf16     1.0000 0.36667  0.27330  0.13108  Biso   1.000  Hf
  Hf17     1.0000 0.36255  0.26710  0.62658  Biso   1.000  Hf
  Hf18     1.0000 0.36588  0.76348  0.12453  Biso   1.000  Hf
  Hf19     1.0000 0.36024  0.76511  0.62143  Biso   1.000  Hf
  Hf20     1.0000 0.85926  0.26839  0.12981  Biso   1.000  Hf
  Hf21     1.0000 0.86026  0.27052  0.62401  Biso   1.000  Hf
  Hf22     1.0000 0.85765  0.76659  0.12995  Biso   1.000  Hf
  Hf23     1.0000 0.86101  0.76670  0.62481  Biso   1.000  Hf
  Hf24     1.0000 0.35894  0.48504  0.37707  Biso   1.000  Hf
  Hf25     1.0000 0.35954  0.48378  0.87630  Biso   1.000  Hf
  Hf26     1.0000 0.36001  0.98478  0.37310  Biso   1.000  Hf
  Hf27     1.0000 0.36862  0.97580  0.86483  Biso   1.000  Hf
  Hf28     1.0000 0.86173  0.48579  0.37595  Biso   1.000  Hf
  Hf29     1.0000 0.85733  0.48549  0.87838  Biso   1.000  Hf
  Hf30     1.0000 0.85745  0.98408  0.38046  Biso   1.000  Hf
  Hf31     1.0000 0.85702  0.98501  0.87274  Biso   1.000  Hf
  Hf32     1.0000 0.02435  0.19673  0.20599  Biso   1.000  Hf
  Hf33     1.0000 0.03643  0.19168  0.67767  Biso   1.000  Hf
  Hf34     1.0000 0.03275  0.68681  0.19394  Biso   1.000  Hf
  Hf35     1.0000 0.02985  0.68545  0.69555  Biso   1.000  Hf
  Hf36     1.0000 0.53728  0.18630  0.19172  Biso   1.000  Hf
  Hf37     1.0000 0.53146  0.18349  0.69530  Biso   1.000  Hf
  Hf38     1.0000 0.53187  0.68108  0.19641  Biso   1.000  Hf
  Hf39     1.0000 0.53059  0.68476  0.69379  Biso   1.000  Hf
  Hf40     1.0000 0.03432  0.06497  0.44230  Biso   1.000  Hf
  Hf41     1.0000 0.03186  0.07766  0.91314  Biso   1.000  Hf
  Hf42     1.0000 0.03033  0.56731  0.44647  Biso   1.000  Hf
  Hf43     1.0000 0.02786  0.57014  0.94344  Biso   1.000  Hf
  Hf44     1.0000 0.53344  0.06641  0.44437  Biso   1.000  Hf
  Hf45     1.0000 0.52737  0.06940  0.94559  Biso   1.000  Hf
  Hf46     1.0000 0.52869  0.56620  0.44683  Biso   1.000  Hf
  Hf47     1.0000 0.52883  0.56612  0.94500  Biso   1.000  Hf
  Hf48     1.0000 0.46078  0.43488  0.19619  Biso   1.000  Hf
  Hf49     1.0000 0.46096  0.43360  0.69698  Biso   1.000  Hf
  Hf50     1.0000 0.45786  0.93595  0.19098  Biso   1.000  Hf
  Hf51     1.0000 0.46014  0.93241  0.68958  Biso   1.000  Hf
  Hf52     1.0000 0.95528  0.44104  0.19253  Biso   1.000  Hf
  Hf53     1.0000 0.96262  0.43322  0.70221  Biso   1.000  Hf
  Hf54     1.0000 0.93805  0.92966  0.20565  Biso   1.000  Hf
  Hf55     1.0000 0.95584  0.93571  0.69119  Biso   1.000  Hf
  Hf56     1.0000 0.45893  0.31644  0.44480  Biso   1.000  Hf
  Hf57     1.0000 0.45370  0.31400  0.94510  Biso   1.000  Hf
  Hf58     1.0000 0.45848  0.81727  0.44416  Biso   1.000  Hf
  Hf59     1.0000 0.46620  0.81520  0.94427  Biso   1.000  Hf
  Hf60     1.0000 0.95955  0.32090  0.44576  Biso   1.000  Hf
  Hf61     1.0000 0.95246  0.32011  0.94891  Biso   1.000  Hf
  Hf62     1.0000 0.95766  0.81525  0.44608  Biso   1.000  Hf
  Hf63     1.0000 0.96590  0.82743  0.95486  Biso   1.000  Hf
  Hf64     1.0000 0.27890  0.12954  0.25050  Biso   1.000  Hf
  Hf65     1.0000 0.26668  0.12125  0.76177  Biso   1.000  Hf
  Hf66     1.0000 0.26513  0.61470  0.24870  Biso   1.000  Hf
  Hf67     1.0000 0.26515  0.61844  0.74893  Biso   1.000  Hf
  Hf68     1.0000 0.76479  0.11814  0.25276  Biso   1.000  Hf
  Hf69     1.0000 0.76685  0.12095  0.74948  Biso   1.000  Hf
  Hf70     1.0000 0.76518  0.61978  0.25082  Biso   1.000  Hf
  Hf71     1.0000 0.76559  0.61781  0.74889  Biso   1.000  Hf
  Hf72     1.0000 0.26774  0.13178  0.50392  Biso   1.000  Hf
  Hf73     1.0000 0.26385  0.63334  0.49850  Biso   1.000  Hf
  Hf74     1.0000 0.26300  0.63078  0.99929  Biso   1.000  Hf
  Hf75     1.0000 0.76536  0.13527  0.50093  Biso   1.000  Hf
  Hf76     1.0000 0.77108  0.13119  0.00002  Biso   1.000  Hf
  Hf77     1.0000 0.76426  0.63303  0.49996  Biso   1.000  Hf
  Hf78     1.0000 0.76296  0.63331  0.99983  Biso   1.000  Hf
  Hf79     1.0000 0.22556  0.38407  0.50043  Biso   1.000  Hf
  Hf80     1.0000 0.22029  0.38009  0.99879  Biso   1.000  Hf
  Hf81     1.0000 0.22304  0.88499  0.49837  Biso   1.000  Hf
  Hf82     1.0000 0.23792  0.87706  0.98682  Biso   1.000  Hf
  Hf83     1.0000 0.72517  0.38432  0.50036  Biso   1.000  Hf
  Hf84     1.0000 0.72383  0.38210  0.00017  Biso   1.000  Hf
  Hf85     1.0000 0.72277  0.88251  0.50224  Biso   1.000  Hf
  Hf86     1.0000 0.72932  0.88103  0.00034  Biso   1.000  Hf
  Hf87     1.0000 0.22377  0.37140  0.25049  Biso   1.000  Hf
  Hf88     1.0000 0.22748  0.37242  0.74603  Biso   1.000  Hf
  Hf89     1.0000 0.23731  0.85674  0.25460  Biso   1.000  Hf
  Hf90     1.0000 0.22414  0.86667  0.74322  Biso   1.000  Hf
  Hf91     1.0000 0.72400  0.37030  0.25167  Biso   1.000  Hf
  Hf92     1.0000 0.72474  0.36943  0.75056  Biso   1.000  Hf
  Hf93     1.0000 0.71318  0.86707  0.25214  Biso   1.000  Hf
  Hf94     1.0000 0.72456  0.86893  0.75033  Biso   1.000  Hf
