data_image0
_cell_length_a       10.1429
_cell_length_b       10.2911
_cell_length_c       10.4721
_cell_angle_alpha    90
_cell_angle_beta     80
_cell_angle_gamma    90

_symmetry_space_group_name_H-M    "P 1"
_symmetry_int_tables_number       1

loop_
  _symmetry_equiv_pos_as_xyz
  'x, y, z'

loop_
  _atom_site_label
  _atom_site_occupancy
  _atom_site_fract_x
  _atom_site_fract_y
  _atom_site_fract_z
  _atom_site_thermal_displace_type
  _atom_site_B_iso_or_equiv
  _atom_site_type_symbol
  La1      1.0000 0.12766  0.01905  0.13730  Biso   1.000  La
  Hf1      1.0000 0.13122  0.02063  0.64683  Biso   1.000  Hf
  Hf2      1.0000 0.13746  0.52048  0.14506  Biso   1.000  Hf
  Hf3      1.0000 0.13061  0.52241  0.64595  Biso   1.000  Hf
  Hf4      1.0000 0.63698  0.01926  0.14716  Biso   1.000  Hf
  Hf5      1.0000 0.63097  0.02183  0.64830  Biso   1.000  Hf
  Hf6      1.0000 0.63450  0.52162  0.14717  Biso   1.000  Hf
  Hf7      1.0000 0.63158  0.52162  0.64708  Biso   1.000  Hf
  Hf8      1.0000 0.13313  0.22873  0.39817  Biso   1.000  Hf
  Hf9      1.0000 0.13313  0.23564  0.88659  Biso   1.000  Hf
  Hf10     1.0000 0.13407  0.72823  0.39561  Biso   1.000  Hf
  Hf11     1.0000 0.12908  0.72763  0.89622  Biso   1.000  Hf
  Hf12     1.0000 0.63237  0.22894  0.39767  Biso   1.000  Hf
  Hf13     1.0000 0.62647  0.22781  0.89791  Biso   1.000  Hf
  Hf14     1.0000 0.63106  0.72746  0.39794  Biso   1.000  Hf
  Hf15     1.0000 0.63010  0.72917  0.89590  Biso   1.000  Hf
  Hf16     1.0000 0.36005  0.27081  0.10430  Biso   1.000  Hf
  Hf17     1.0000 0.35514  0.27176  0.60261  Biso   1.000  Hf
  Hf18     1.0000 0.36414  0.76964  0.10273  Biso   1.000  Hf
  Hf19     1.0000 0.35332  0.77194  0.60431  Biso   1.000  Hf
  Hf20     1.0000 0.85009  0.27541  0.10636  Biso   1.000  Hf
  Hf21     1.0000 0.85392  0.27137  0.60694  Biso   1.000  Hf
  Hf22     1.0000 0.85589  0.76642  0.10478  Biso   1.000  Hf
  Hf23     1.0000 0.85474  0.77204  0.60593  Biso   1.000  Hf
  Hf24     1.0000 0.35466  0.47853  0.35378  Biso   1.000  Hf
  Hf25     1.0000 0.35350  0.47959  0.85523  Biso   1.000  Hf
  Hf26     1.0000 0.35722  0.97966  0.35403  Biso   1.000  Hf
  Hf27     1.0000 0.35301  0.97785  0.85286  Biso   1.000  Hf
  Hf28     1.0000 0.85732  0.47835  0.35638  Biso   1.000  Hf
  Hf29     1.0000 0.85222  0.47716  0.85639  Biso   1.000  Hf
  Hf30     1.0000 0.85012  0.97826  0.35970  Biso   1.000  Hf
  Hf31     1.0000 0.85280  0.97872  0.85834  Biso   1.000  Hf
  Hf32     1.0000 0.02941  0.17159  0.58699  Biso   1.000  Hf
  Hf33     1.0000 0.03557  0.67008  0.08058  Biso   1.000  Hf
  Hf34     1.0000 0.02841  0.66925  0.58099  Biso   1.000  Hf
  Hf35     1.0000 0.53564  0.16851  0.07913  Biso   1.000  Hf
  Hf36     1.0000 0.52744  0.16818  0.58035  Biso   1.000  Hf
  Hf37     1.0000 0.53771  0.66908  0.07845  Biso   1.000  Hf
  Hf38     1.0000 0.52734  0.66780  0.58169  Biso   1.000  Hf
  Hf39     1.0000 0.01806  0.08954  0.34053  Biso   1.000  Hf
  Hf40     1.0000 0.02901  0.07884  0.84169  Biso   1.000  Hf
  Hf41     1.0000 0.03040  0.58265  0.32829  Biso   1.000  Hf
  Hf42     1.0000 0.02651  0.57826  0.83211  Biso   1.000  Hf
  Hf43     1.0000 0.53286  0.08026  0.33098  Biso   1.000  Hf
  Hf44     1.0000 0.52554  0.08250  0.82991  Biso   1.000  Hf
  Hf45     1.0000 0.52936  0.58157  0.32936  Biso   1.000  Hf
  Hf46     1.0000 0.52662  0.58214  0.83041  Biso   1.000  Hf
  Hf47     1.0000 0.46161  0.41836  0.17064  Biso   1.000  Hf
  Hf48     1.0000 0.45784  0.41806  0.67154  Biso   1.000  Hf
  Hf49     1.0000 0.46179  0.92124  0.16852  Biso   1.000  Hf
  Hf50     1.0000 0.45717  0.91845  0.67146  Biso   1.000  Hf
  Hf51     1.0000 0.96441  0.41045  0.17340  Biso   1.000  Hf
  Hf52     1.0000 0.95720  0.41759  0.67500  Biso   1.000  Hf
  Hf53     1.0000 0.93333  0.92129  0.17468  Biso   1.000  Hf
  Hf54     1.0000 0.95648  0.92016  0.67400  Biso   1.000  Hf
  Hf55     1.0000 0.45875  0.33145  0.42009  Biso   1.000  Hf
  Hf56     1.0000 0.45521  0.33400  0.92291  Biso   1.000  Hf
  Hf57     1.0000 0.45764  0.83113  0.42276  Biso   1.000  Hf
  Hf58     1.0000 0.46084  0.83432  0.92112  Biso   1.000  Hf
  Hf59     1.0000 0.95985  0.33589  0.42688  Biso   1.000  Hf
  Hf60     1.0000 0.95286  0.32752  0.92843  Biso   1.000  Hf
  Hf61     1.0000 0.95947  0.83312  0.42132  Biso   1.000  Hf
  Hf62     1.0000 0.95438  0.83044  0.92412  Biso   1.000  Hf
  Hf63     1.0000 0.27890  0.13615  0.24684  Biso   1.000  Hf
  Hf64     1.0000 0.26784  0.12981  0.73669  Biso   1.000  Hf
  Hf65     1.0000 0.27361  0.62583  0.23863  Biso   1.000  Hf
  Hf66     1.0000 0.26702  0.62931  0.74074  Biso   1.000  Hf
  Hf67     1.0000 0.77239  0.13209  0.24210  Biso   1.000  Hf
  Hf68     1.0000 0.76802  0.12868  0.74397  Biso   1.000  Hf
  Hf69     1.0000 0.77227  0.62704  0.24155  Biso   1.000  Hf
  Hf70     1.0000 0.76939  0.62847  0.74162  Biso   1.000  Hf
  Hf71     1.0000 0.26874  0.12035  0.49189  Biso   1.000  Hf
  Hf72     1.0000 0.26663  0.13130  0.98003  Biso   1.000  Hf
  Hf73     1.0000 0.26956  0.62152  0.49016  Biso   1.000  Hf
  Hf74     1.0000 0.26458  0.61790  0.99182  Biso   1.000  Hf
  Hf75     1.0000 0.76694  0.12208  0.49480  Biso   1.000  Hf
  Hf76     1.0000 0.76467  0.12119  0.99450  Biso   1.000  Hf
  Hf77     1.0000 0.77045  0.62118  0.49195  Biso   1.000  Hf
  Hf78     1.0000 0.76356  0.61830  0.99189  Biso   1.000  Hf
  Hf79     1.0000 0.22301  0.37862  0.00750  Biso   1.000  Hf
  Hf80     1.0000 0.21747  0.38041  0.50988  Biso   1.000  Hf
  Hf81     1.0000 0.22452  0.86794  0.99881  Biso   1.000  Hf
  Hf82     1.0000 0.21619  0.88011  0.51038  Biso   1.000  Hf
  Hf83     1.0000 0.72313  0.37926  0.01044  Biso   1.000  Hf
  Hf84     1.0000 0.71702  0.37937  0.51118  Biso   1.000  Hf
  Hf85     1.0000 0.72531  0.87827  0.00903  Biso   1.000  Hf
  Hf86     1.0000 0.71648  0.87850  0.51307  Biso   1.000  Hf
  Hf87     1.0000 0.21819  0.37223  0.25932  Biso   1.000  Hf
  Hf88     1.0000 0.21730  0.37369  0.75742  Biso   1.000  Hf
  Hf89     1.0000 0.22838  0.86320  0.26187  Biso   1.000  Hf
  Hf90     1.0000 0.21458  0.87095  0.75820  Biso   1.000  Hf
  Hf91     1.0000 0.71850  0.37275  0.26120  Biso   1.000  Hf
  Hf92     1.0000 0.71537  0.37047  0.76209  Biso   1.000  Hf
  Hf93     1.0000 0.70701  0.86847  0.26471  Biso   1.000  Hf
  Hf94     1.0000 0.71690  0.87112  0.76125  Biso   1.000  Hf
