data_image0
_cell_length_a       10.062
_cell_length_b       10.2479
_cell_length_c       10.4805
_cell_angle_alpha    90
_cell_angle_beta     90
_cell_angle_gamma    90

_symmetry_space_group_name_H-M    "P 1"
_symmetry_int_tables_number       1

loop_
  _symmetry_equiv_pos_as_xyz
  'x, y, z'

loop_
  _atom_site_label
  _atom_site_occupancy
  _atom_site_fract_x
  _atom_site_fract_y
  _atom_site_fract_z
  _atom_site_thermal_displace_type
  _atom_site_B_iso_or_equiv
  _atom_site_type_symbol
  La1      1.0000 0.12671  0.02035  0.15706  Biso   1.000  La
  Hf1      1.0000 0.13538  0.02023  0.67133  Biso   1.000  Hf
  Hf2      1.0000 0.13814  0.52053  0.17108  Biso   1.000  Hf
  Hf3      1.0000 0.13488  0.52258  0.66922  Biso   1.000  Hf
  Hf4      1.0000 0.13539  0.22882  0.42204  Biso   1.000  Hf
  Hf5      1.0000 0.13900  0.23778  0.90982  Biso   1.000  Hf
  Hf6      1.0000 0.13692  0.72993  0.42021  Biso   1.000  Hf
  Hf7      1.0000 0.13491  0.72723  0.92037  Biso   1.000  Hf
  Hf8      1.0000 0.35960  0.27118  0.17115  Biso   1.000  Hf
  Hf9      1.0000 0.35929  0.27144  0.66802  Biso   1.000  Hf
  Hf10     1.0000 0.36320  0.76990  0.17111  Biso   1.000  Hf
  Hf11     1.0000 0.35827  0.77195  0.66982  Biso   1.000  Hf
  Hf12     1.0000 0.35903  0.47934  0.42040  Biso   1.000  Hf
  Hf13     1.0000 0.35668  0.47997  0.92124  Biso   1.000  Hf
  Hf14     1.0000 0.35954  0.97976  0.41946  Biso   1.000  Hf
  Hf15     1.0000 0.36006  0.97926  0.91776  Biso   1.000  Hf
  Hf16     1.0000 0.63790  0.02042  0.08042  Biso   1.000  Hf
  Hf17     1.0000 0.63406  0.02084  0.58012  Biso   1.000  Hf
  Hf18     1.0000 0.63644  0.52219  0.07840  Biso   1.000  Hf
  Hf19     1.0000 0.63631  0.52164  0.57730  Biso   1.000  Hf
  Hf20     1.0000 0.63489  0.22953  0.32962  Biso   1.000  Hf
  Hf21     1.0000 0.63346  0.22859  0.82791  Biso   1.000  Hf
  Hf22     1.0000 0.63706  0.72958  0.32951  Biso   1.000  Hf
  Hf23     1.0000 0.63497  0.72876  0.82673  Biso   1.000  Hf
  Hf24     1.0000 0.85152  0.27573  0.07917  Biso   1.000  Hf
  Hf25     1.0000 0.85815  0.27126  0.57969  Biso   1.000  Hf
  Hf26     1.0000 0.85785  0.76622  0.07851  Biso   1.000  Hf
  Hf27     1.0000 0.85985  0.77206  0.58056  Biso   1.000  Hf
  Hf28     1.0000 0.86062  0.47885  0.32973  Biso   1.000  Hf
  Hf29     1.0000 0.85804  0.47775  0.82845  Biso   1.000  Hf
  Hf30     1.0000 0.85490  0.97900  0.33403  Biso   1.000  Hf
  Hf31     1.0000 0.85916  0.97960  0.83216  Biso   1.000  Hf
  Hf32     1.0000 0.03006  0.16671  0.58853  Biso   1.000  Hf
  Hf33     1.0000 0.03199  0.66190  0.08063  Biso   1.000  Hf
  Hf34     1.0000 0.02991  0.66495  0.58269  Biso   1.000  Hf
  Hf35     1.0000 0.01695  0.09568  0.33847  Biso   1.000  Hf
  Hf36     1.0000 0.03244  0.08302  0.84518  Biso   1.000  Hf
  Hf37     1.0000 0.02975  0.58817  0.33053  Biso   1.000  Hf
  Hf38     1.0000 0.02837  0.58362  0.83191  Biso   1.000  Hf
  Hf39     1.0000 0.46670  0.41510  0.08248  Biso   1.000  Hf
  Hf40     1.0000 0.46544  0.41550  0.58189  Biso   1.000  Hf
  Hf41     1.0000 0.46789  0.91895  0.08428  Biso   1.000  Hf
  Hf42     1.0000 0.46417  0.91648  0.58335  Biso   1.000  Hf
  Hf43     1.0000 0.46633  0.33715  0.33216  Biso   1.000  Hf
  Hf44     1.0000 0.46253  0.33467  0.83215  Biso   1.000  Hf
  Hf45     1.0000 0.46718  0.83458  0.33403  Biso   1.000  Hf
  Hf46     1.0000 0.46508  0.83556  0.83077  Biso   1.000  Hf
  Hf47     1.0000 0.27833  0.12920  0.29924  Biso   1.000  Hf
  Hf48     1.0000 0.27294  0.12426  0.78823  Biso   1.000  Hf
  Hf49     1.0000 0.27504  0.62173  0.29327  Biso   1.000  Hf
  Hf50     1.0000 0.27172  0.62438  0.79324  Biso   1.000  Hf
  Hf51     1.0000 0.28114  0.13858  0.03035  Biso   1.000  Hf
  Hf52     1.0000 0.27191  0.12626  0.54398  Biso   1.000  Hf
  Hf53     1.0000 0.27611  0.62173  0.04518  Biso   1.000  Hf
  Hf54     1.0000 0.27334  0.62756  0.54317  Biso   1.000  Hf
  Hf55     1.0000 0.22169  0.37421  0.29466  Biso   1.000  Hf
  Hf56     1.0000 0.22214  0.37631  0.79169  Biso   1.000  Hf
  Hf57     1.0000 0.22756  0.86776  0.29675  Biso   1.000  Hf
  Hf58     1.0000 0.22103  0.87366  0.79195  Biso   1.000  Hf
  Hf59     1.0000 0.22140  0.37773  0.04329  Biso   1.000  Hf
  Hf60     1.0000 0.22170  0.37764  0.54445  Biso   1.000  Hf
  Hf61     1.0000 0.24030  0.86428  0.03378  Biso   1.000  Hf
  Hf62     1.0000 0.22105  0.87780  0.54443  Biso   1.000  Hf
  Hf63     1.0000 0.53256  0.16675  0.16595  Biso   1.000  Hf
  Hf64     1.0000 0.53042  0.16687  0.66507  Biso   1.000  Hf
  Hf65     1.0000 0.53293  0.66464  0.16680  Biso   1.000  Hf
  Hf66     1.0000 0.53015  0.66521  0.66586  Biso   1.000  Hf
  Hf67     1.0000 0.53068  0.08420  0.41613  Biso   1.000  Hf
  Hf68     1.0000 0.53118  0.08290  0.91385  Biso   1.000  Hf
  Hf69     1.0000 0.53083  0.58506  0.41660  Biso   1.000  Hf
  Hf70     1.0000 0.52588  0.58678  0.91666  Biso   1.000  Hf
  Hf71     1.0000 0.96864  0.40605  0.17104  Biso   1.000  Hf
  Hf72     1.0000 0.96532  0.41294  0.67084  Biso   1.000  Hf
  Hf73     1.0000 0.94665  0.90465  0.17700  Biso   1.000  Hf
  Hf74     1.0000 0.96478  0.91562  0.67198  Biso   1.000  Hf
  Hf75     1.0000 0.96628  0.34118  0.42355  Biso   1.000  Hf
  Hf76     1.0000 0.96109  0.33173  0.92274  Biso   1.000  Hf
  Hf77     1.0000 0.96676  0.83956  0.42246  Biso   1.000  Hf
  Hf78     1.0000 0.96545  0.83783  0.92306  Biso   1.000  Hf
  Hf79     1.0000 0.77286  0.12449  0.95815  Biso   1.000  Hf
  Hf80     1.0000 0.76958  0.12573  0.45891  Biso   1.000  Hf
  Hf81     1.0000 0.76872  0.62128  0.95345  Biso   1.000  Hf
  Hf82     1.0000 0.77506  0.62464  0.45552  Biso   1.000  Hf
  Hf83     1.0000 0.77609  0.12870  0.20601  Biso   1.000  Hf
  Hf84     1.0000 0.77275  0.12582  0.70792  Biso   1.000  Hf
  Hf85     1.0000 0.77483  0.62557  0.20491  Biso   1.000  Hf
  Hf86     1.0000 0.77366  0.62549  0.70520  Biso   1.000  Hf
  Hf87     1.0000 0.71648  0.37435  0.95503  Biso   1.000  Hf
  Hf88     1.0000 0.72167  0.37480  0.45452  Biso   1.000  Hf
  Hf89     1.0000 0.71969  0.87338  0.95575  Biso   1.000  Hf
  Hf90     1.0000 0.72156  0.87323  0.45854  Biso   1.000  Hf
  Hf91     1.0000 0.72100  0.37847  0.20504  Biso   1.000  Hf
  Hf92     1.0000 0.72115  0.37605  0.70506  Biso   1.000  Hf
  Hf93     1.0000 0.71161  0.87768  0.20826  Biso   1.000  Hf
  Hf94     1.0000 0.72208  0.87621  0.70694  Biso   1.000  Hf
