data_image0
_cell_length_a       5.03919
_cell_length_b       10.2707
_cell_length_c       10.0915
_cell_angle_alpha    90
_cell_angle_beta     90
_cell_angle_gamma    90

_symmetry_space_group_name_H-M    "P 1"
_symmetry_int_tables_number       1

loop_
  _symmetry_equiv_pos_as_xyz
  'x, y, z'

loop_
  _atom_site_label
  _atom_site_occupancy
  _atom_site_fract_x
  _atom_site_fract_y
  _atom_site_fract_z
  _atom_site_thermal_displace_type
  _atom_site_B_iso_or_equiv
  _atom_site_type_symbol
  La1      1.0000 0.24982  0.00005  0.12491  Biso   1.000  La
  Hf1      1.0000 0.24673  0.25282  0.37707  Biso   1.000  Hf
  Hf2      1.0000 0.74982  0.25673  0.12491  Biso   1.000  Hf
  Hf3      1.0000 0.74982  0.00005  0.37878  Biso   1.000  Hf
  Hf4      1.0000 0.00219  0.15416  0.99807  Biso   1.000  Hf
  Hf5      1.0000 0.97369  0.11735  0.26419  Biso   1.000  Hf
  Hf6      1.0000 0.01819  0.35638  0.24471  Biso   1.000  Hf
  Hf7      1.0000 0.98635  0.39884  0.99909  Biso   1.000  Hf
  Hf8      1.0000 0.49745  0.15416  0.25175  Biso   1.000  Hf
  Hf9      1.0000 0.52594  0.11735  0.98563  Biso   1.000  Hf
  Hf10     1.0000 0.48144  0.35638  0.00511  Biso   1.000  Hf
  Hf11     1.0000 0.51331  0.39884  0.25073  Biso   1.000  Hf
  Hf12     1.0000 0.24982  0.00005  0.62491  Biso   1.000  Hf
  Hf13     1.0000 0.25291  0.25282  0.87274  Biso   1.000  Hf
  Hf14     1.0000 0.74981  0.24892  0.62491  Biso   1.000  Hf
  Hf15     1.0000 0.74982  0.00005  0.87103  Biso   1.000  Hf
  Hf16     1.0000 0.01725  0.14966  0.50997  Biso   1.000  Hf
  Hf17     1.0000 0.99151  0.10137  0.75119  Biso   1.000  Hf
  Hf18     1.0000 0.00177  0.35277  0.74575  Biso   1.000  Hf
  Hf19     1.0000 0.00087  0.39834  0.49645  Biso   1.000  Hf
  Hf20     1.0000 0.48239  0.14966  0.73985  Biso   1.000  Hf
  Hf21     1.0000 0.50812  0.10137  0.49862  Biso   1.000  Hf
  Hf22     1.0000 0.49788  0.35277  0.50407  Biso   1.000  Hf
  Hf23     1.0000 0.49878  0.39834  0.75336  Biso   1.000  Hf
  Hf24     1.0000 0.24983  0.50005  0.12491  Biso   1.000  Hf
  Hf25     1.0000 0.25291  0.74730  0.37707  Biso   1.000  Hf
  Hf26     1.0000 0.74983  0.74337  0.12491  Biso   1.000  Hf
  Hf27     1.0000 0.74983  0.50006  0.37607  Biso   1.000  Hf
  Hf28     1.0000 0.01820  0.64373  0.00511  Biso   1.000  Hf
  Hf29     1.0000 0.98635  0.60127  0.25073  Biso   1.000  Hf
  Hf30     1.0000 0.00218  0.84594  0.25175  Biso   1.000  Hf
  Hf31     1.0000 0.97370  0.88276  0.98563  Biso   1.000  Hf
  Hf32     1.0000 0.48145  0.64373  0.24471  Biso   1.000  Hf
  Hf33     1.0000 0.51330  0.60127  0.99909  Biso   1.000  Hf
  Hf34     1.0000 0.49747  0.84594  0.99807  Biso   1.000  Hf
  Hf35     1.0000 0.52596  0.88276  0.26419  Biso   1.000  Hf
  Hf36     1.0000 0.24983  0.50005  0.62491  Biso   1.000  Hf
  Hf37     1.0000 0.24674  0.74729  0.87274  Biso   1.000  Hf
  Hf38     1.0000 0.74983  0.75118  0.62491  Biso   1.000  Hf
  Hf39     1.0000 0.74983  0.50005  0.87375  Biso   1.000  Hf
  Hf40     1.0000 0.00178  0.64734  0.50407  Biso   1.000  Hf
  Hf41     1.0000 0.00087  0.60176  0.75337  Biso   1.000  Hf
  Hf42     1.0000 0.01725  0.85045  0.73985  Biso   1.000  Hf
  Hf43     1.0000 0.99151  0.89874  0.49863  Biso   1.000  Hf
  Hf44     1.0000 0.49788  0.64734  0.74575  Biso   1.000  Hf
  Hf45     1.0000 0.49877  0.60176  0.49645  Biso   1.000  Hf
  Hf46     1.0000 0.48240  0.85045  0.50997  Biso   1.000  Hf
  Hf47     1.0000 0.50814  0.89874  0.75119  Biso   1.000  Hf
