data_image0
_cell_length_a       10.1572
_cell_length_b       5.18549
_cell_length_c       10.7235
_cell_angle_alpha    90
_cell_angle_beta     80
_cell_angle_gamma    90

_symmetry_space_group_name_H-M    "P 1"
_symmetry_int_tables_number       1

loop_
  _symmetry_equiv_pos_as_xyz
  'x, y, z'

loop_
  _atom_site_label
  _atom_site_occupancy
  _atom_site_fract_x
  _atom_site_fract_y
  _atom_site_fract_z
  _atom_site_thermal_displace_type
  _atom_site_B_iso_or_equiv
  _atom_site_type_symbol
  Hf1      1.0000 0.13848  0.04881  0.14869  Biso   1.000  Hf
  Hf2      1.0000 0.14394  0.46429  0.39363  Biso   1.000  Hf
  Hf3      1.0000 0.33792  0.55466  0.07800  Biso   1.000  Hf
  Hf4      1.0000 0.35391  0.96543  0.35412  Biso   1.000  Hf
  Hf5      1.0000 0.02802  0.33160  0.07695  Biso   1.000  Hf
  Hf6      1.0000 0.03968  0.16992  0.32734  Biso   1.000  Hf
  Hf7      1.0000 0.44681  0.88062  0.16032  Biso   1.000  Hf
  Hf8      1.0000 0.48196  0.68548  0.44619  Biso   1.000  Hf
  Hf9      1.0000 0.28124  0.26908  0.23923  Biso   1.000  Hf
  Hf10     1.0000 0.28775  0.25556  0.48644  Biso   1.000  Hf
  Hf11     1.0000 0.20199  0.77580  0.00127  Biso   1.000  Hf
  Hf12     1.0000 0.21300  0.74601  0.25245  Biso   1.000  Hf
  Hf13     1.0000 0.15348  0.04777  0.64224  Biso   1.000  Hf
  Hf14     1.0000 0.14619  0.45816  0.88983  Biso   1.000  Hf
  Hf15     1.0000 0.37054  0.54911  0.60594  Biso   1.000  Hf
  Hf16     1.0000 0.36753  0.96481  0.84672  Biso   1.000  Hf
  Hf17     1.0000 0.04724  0.33306  0.57636  Biso   1.000  Hf
  Hf18     1.0000 0.04698  0.17112  0.82234  Biso   1.000  Hf
  Hf19     1.0000 0.47638  0.82540  0.67839  Biso   1.000  Hf
  Hf20     1.0000 0.47914  0.68131  0.91288  Biso   1.000  Hf
  Hf21     1.0000 0.28809  0.25548  0.73618  Biso   1.000  Hf
  Hf22     1.0000 0.28778  0.25188  0.98041  Biso   1.000  Hf
  Hf23     1.0000 0.22830  0.76271  0.50763  Biso   1.000  Hf
  Hf24     1.0000 0.23174  0.74239  0.75406  Biso   1.000  Hf
  Hf25     1.0000 0.64463  0.03527  0.14881  Biso   1.000  Hf
  Hf26     1.0000 0.66063  0.44602  0.42493  Biso   1.000  Hf
  Hf27     1.0000 0.85461  0.53640  0.10931  Biso   1.000  Hf
  Hf28     1.0000 0.86007  0.95188  0.35424  Biso   1.000  Hf
  Hf29     1.0000 0.51660  0.31517  0.05674  Biso   1.000  Hf
  Hf30     1.0000 0.55172  0.12004  0.34261  Biso   1.000  Hf
  Hf31     1.0000 0.95886  0.83078  0.17559  Biso   1.000  Hf
  Hf32     1.0000 0.97053  0.66907  0.42598  Biso   1.000  Hf
  Hf33     1.0000 0.78554  0.25467  0.25048  Biso   1.000  Hf
  Hf34     1.0000 0.79656  0.22488  0.50165  Biso   1.000  Hf
  Hf35     1.0000 0.71081  0.74512  0.01648  Biso   1.000  Hf
  Hf36     1.0000 0.71732  0.73159  0.26370  Biso   1.000  Hf
  Hf37     1.0000 0.65556  0.03746  0.65191  Biso   1.000  Hf
  Hf38     1.0000 0.65256  0.45316  0.89269  Biso   1.000  Hf
  Hf39     1.0000 0.87691  0.54411  0.60880  Biso   1.000  Hf
  Hf40     1.0000 0.86962  0.95452  0.85639  Biso   1.000  Hf
  Hf41     1.0000 0.54395  0.32095  0.58575  Biso   1.000  Hf
  Hf42     1.0000 0.54671  0.17687  0.82025  Biso   1.000  Hf
  Hf43     1.0000 0.97612  0.83116  0.67628  Biso   1.000  Hf
  Hf44     1.0000 0.97587  0.66923  0.92227  Biso   1.000  Hf
  Hf45     1.0000 0.79136  0.25990  0.74456  Biso   1.000  Hf
  Hf46     1.0000 0.79480  0.23958  0.99099  Biso   1.000  Hf
  Hf47     1.0000 0.73532  0.75042  0.51823  Biso   1.000  Hf
  Hf48     1.0000 0.73501  0.74679  0.76245  Biso   1.000  Hf
  La1      1.0000 0.49928  0.50034  0.25146  Biso   1.000  La
