data_image0
_cell_length_a       10.1995
_cell_length_b       5.16861
_cell_length_c       10.4544
_cell_angle_alpha    90
_cell_angle_beta     80
_cell_angle_gamma    90

_symmetry_space_group_name_H-M    "P 1"
_symmetry_int_tables_number       1

loop_
  _symmetry_equiv_pos_as_xyz
  'x, y, z'

loop_
  _atom_site_label
  _atom_site_occupancy
  _atom_site_fract_x
  _atom_site_fract_y
  _atom_site_fract_z
  _atom_site_thermal_displace_type
  _atom_site_B_iso_or_equiv
  _atom_site_type_symbol
  La1      1.0000 0.12564  0.01737  0.13699  Biso   1.000  La
  Hf1      1.0000 0.13055  0.45091  0.39708  Biso   1.000  Hf
  Hf2      1.0000 0.36301  0.52760  0.10263  Biso   1.000  Hf
  Hf3      1.0000 0.35034  0.95533  0.35328  Biso   1.000  Hf
  Hf4      1.0000 0.04032  0.41347  0.08614  Biso   1.000  Hf
  Hf5      1.0000 0.01855  0.16033  0.34751  Biso   1.000  Hf
  Hf6      1.0000 0.46064  0.83365  0.16892  Biso   1.000  Hf
  Hf7      1.0000 0.45291  0.65938  0.42252  Biso   1.000  Hf
  Hf8      1.0000 0.27641  0.25346  0.24568  Biso   1.000  Hf
  Hf9      1.0000 0.26532  0.23959  0.49256  Biso   1.000  Hf
  Hf10     1.0000 0.22640  0.73423  0.99474  Biso   1.000  Hf
  Hf11     1.0000 0.22671  0.71704  0.26167  Biso   1.000  Hf
  Hf12     1.0000 0.12902  0.04227  0.64712  Biso   1.000  Hf
  Hf13     1.0000 0.12502  0.46507  0.89436  Biso   1.000  Hf
  Hf14     1.0000 0.34770  0.54156  0.60445  Biso   1.000  Hf
  Hf15     1.0000 0.34919  0.95550  0.85325  Biso   1.000  Hf
  Hf16     1.0000 0.02776  0.35094  0.58888  Biso   1.000  Hf
  Hf17     1.0000 0.02671  0.14842  0.84055  Biso   1.000  Hf
  Hf18     1.0000 0.45303  0.83357  0.67084  Biso   1.000  Hf
  Hf19     1.0000 0.46022  0.66829  0.92077  Biso   1.000  Hf
  Hf20     1.0000 0.26377  0.25855  0.73963  Biso   1.000  Hf
  Hf21     1.0000 0.26801  0.24529  0.98203  Biso   1.000  Hf
  Hf22     1.0000 0.21190  0.75963  0.51016  Biso   1.000  Hf
  Hf23     1.0000 0.20973  0.74375  0.75650  Biso   1.000  Hf
  Hf24     1.0000 0.63819  0.03465  0.14761  Biso   1.000  Hf
  Hf25     1.0000 0.62544  0.45550  0.39987  Biso   1.000  Hf
  Hf26     1.0000 0.85376  0.53503  0.10419  Biso   1.000  Hf
  Hf27     1.0000 0.84307  0.96059  0.36264  Biso   1.000  Hf
  Hf28     1.0000 0.53784  0.33145  0.07894  Biso   1.000  Hf
  Hf29     1.0000 0.52825  0.15814  0.33163  Biso   1.000  Hf
  Hf30     1.0000 0.91320  0.87539  0.16784  Biso   1.000  Hf
  Hf31     1.0000 0.95354  0.66024  0.41733  Biso   1.000  Hf
  Hf32     1.0000 0.76590  0.26698  0.24637  Biso   1.000  Hf
  Hf33     1.0000 0.76248  0.24429  0.49624  Biso   1.000  Hf
  Hf34     1.0000 0.72205  0.75564  0.00857  Biso   1.000  Hf
  Hf35     1.0000 0.70193  0.74162  0.26797  Biso   1.000  Hf
  Hf36     1.0000 0.62922  0.04231  0.64907  Biso   1.000  Hf
  Hf37     1.0000 0.62760  0.45756  0.89747  Biso   1.000  Hf
  Hf38     1.0000 0.85182  0.54413  0.60613  Biso   1.000  Hf
  Hf39     1.0000 0.84584  0.95780  0.85683  Biso   1.000  Hf
  Hf40     1.0000 0.52158  0.33300  0.58366  Biso   1.000  Hf
  Hf41     1.0000 0.52601  0.16145  0.83124  Biso   1.000  Hf
  Hf42     1.0000 0.94936  0.84977  0.66879  Biso   1.000  Hf
  Hf43     1.0000 0.94466  0.65421  0.91514  Biso   1.000  Hf
  Hf44     1.0000 0.76644  0.25968  0.74289  Biso   1.000  Hf
  Hf45     1.0000 0.76122  0.23705  0.99440  Biso   1.000  Hf
  Hf46     1.0000 0.71215  0.75705  0.51406  Biso   1.000  Hf
  Hf47     1.0000 0.71254  0.74154  0.76047  Biso   1.000  Hf
