data_image0
_cell_length_a       10.0859
_cell_length_b       5.18723
_cell_length_c       10.6922
_cell_angle_alpha    90
_cell_angle_beta     90
_cell_angle_gamma    90

_symmetry_space_group_name_H-M    "P 1"
_symmetry_int_tables_number       1

loop_
  _symmetry_equiv_pos_as_xyz
  'x, y, z'

loop_
  _atom_site_label
  _atom_site_occupancy
  _atom_site_fract_x
  _atom_site_fract_y
  _atom_site_fract_z
  _atom_site_thermal_displace_type
  _atom_site_B_iso_or_equiv
  _atom_site_type_symbol
  Hf1      1.0000 0.13262  0.05222  0.17624  Biso   1.000  Hf
  Hf2      1.0000 0.12291  0.46542  0.42633  Biso   1.000  Hf
  Hf3      1.0000 0.33957  0.56165  0.19100  Biso   1.000  Hf
  Hf4      1.0000 0.34402  0.96789  0.42794  Biso   1.000  Hf
  Hf5      1.0000 0.64176  0.07432  0.08723  Biso   1.000  Hf
  Hf6      1.0000 0.62640  0.46947  0.33432  Biso   1.000  Hf
  Hf7      1.0000 0.86608  0.55148  0.07814  Biso   1.000  Hf
  Hf8      1.0000 0.84726  0.96868  0.32698  Biso   1.000  Hf
  Hf9      1.0000 0.02829  0.32008  0.07940  Biso   1.000  Hf
  Hf10     1.0000 0.01936  0.18982  0.33261  Biso   1.000  Hf
  Hf11     1.0000 0.44127  0.89056  0.10985  Biso   1.000  Hf
  Hf12     1.0000 0.45251  0.68089  0.34134  Biso   1.000  Hf
  Hf13     1.0000 0.26038  0.26220  0.30200  Biso   1.000  Hf
  Hf14     1.0000 0.27160  0.26257  0.04982  Biso   1.000  Hf
  Hf15     1.0000 0.20600  0.76446  0.30689  Biso   1.000  Hf
  Hf16     1.0000 0.20834  0.76020  0.05515  Biso   1.000  Hf
  Hf17     1.0000 0.51476  0.33134  0.18773  Biso   1.000  Hf
  Hf18     1.0000 0.51853  0.18073  0.42013  Biso   1.000  Hf
  Hf19     1.0000 0.95907  0.83332  0.17658  Biso   1.000  Hf
  Hf20     1.0000 0.95581  0.69156  0.42348  Biso   1.000  Hf
  Hf21     1.0000 0.76261  0.26162  0.45111  Biso   1.000  Hf
  Hf22     1.0000 0.77444  0.26732  0.20778  Biso   1.000  Hf
  Hf23     1.0000 0.71200  0.75998  0.45531  Biso   1.000  Hf
  Hf24     1.0000 0.70906  0.75568  0.20793  Biso   1.000  Hf
  Hf25     1.0000 0.12455  0.06242  0.67604  Biso   1.000  Hf
  Hf26     1.0000 0.11450  0.50110  0.92380  Biso   1.000  Hf
  Hf27     1.0000 0.33962  0.56172  0.67307  Biso   1.000  Hf
  Hf28     1.0000 0.32320  0.00858  0.93317  Biso   1.000  Hf
  Hf29     1.0000 0.62657  0.04309  0.56839  Biso   1.000  Hf
  Hf30     1.0000 0.62090  0.45540  0.78520  Biso   1.000  Hf
  Hf31     1.0000 0.85291  0.56162  0.57669  Biso   1.000  Hf
  Hf32     1.0000 0.84335  0.99679  0.82905  Biso   1.000  Hf
  Hf33     1.0000 0.01697  0.33926  0.58223  Biso   1.000  Hf
  Hf34     1.0000 0.01200  0.21307  0.83058  Biso   1.000  Hf
  Hf35     1.0000 0.45467  0.82086  0.57545  Biso   1.000  Hf
  Hf36     1.0000 0.45542  0.69424  0.81388  Biso   1.000  Hf
  Hf37     1.0000 0.25187  0.28417  0.79717  Biso   1.000  Hf
  Hf38     1.0000 0.25875  0.26150  0.54717  Biso   1.000  Hf
  Hf39     1.0000 0.20344  0.77971  0.80198  Biso   1.000  Hf
  Hf40     1.0000 0.20651  0.76626  0.55276  Biso   1.000  Hf
  Hf41     1.0000 0.50262  0.30651  0.65826  Biso   1.000  Hf
  Hf42     1.0000 0.50430  0.19310  0.91940  Biso   1.000  Hf
  Hf43     1.0000 0.95244  0.84271  0.67387  Biso   1.000  Hf
  Hf44     1.0000 0.94613  0.71368  0.91966  Biso   1.000  Hf
  Hf45     1.0000 0.73993  0.34044  0.94157  Biso   1.000  Hf
  Hf46     1.0000 0.76442  0.24812  0.68849  Biso   1.000  Hf
  Hf47     1.0000 0.72164  0.86398  0.97146  Biso   1.000  Hf
  Hf48     1.0000 0.71171  0.76077  0.70242  Biso   1.000  Hf
  La1      1.0000 0.56336  0.57335  0.01431  Biso   1.000  La
