data_image0
_cell_length_a       10.1751
_cell_length_b       10.3737
_cell_length_c       5.23155
_cell_angle_alpha    90
_cell_angle_beta     80
_cell_angle_gamma    90

_symmetry_space_group_name_H-M    "P 1"
_symmetry_int_tables_number       1

loop_
  _symmetry_equiv_pos_as_xyz
  'x, y, z'

loop_
  _atom_site_label
  _atom_site_occupancy
  _atom_site_fract_x
  _atom_site_fract_y
  _atom_site_fract_z
  _atom_site_thermal_displace_type
  _atom_site_B_iso_or_equiv
  _atom_site_type_symbol
  La1      1.0000 0.12806  0.01273  0.27873  Biso   1.000  La
  Hf1      1.0000 0.12998  0.23270  0.79160  Biso   1.000  Hf
  Hf2      1.0000 0.35750  0.26877  0.20675  Biso   1.000  Hf
  Hf3      1.0000 0.35250  0.47649  0.70694  Biso   1.000  Hf
  Hf4      1.0000 0.03684  0.19923  0.16902  Biso   1.000  Hf
  Hf5      1.0000 0.02457  0.07618  0.71056  Biso   1.000  Hf
  Hf6      1.0000 0.45973  0.41656  0.34047  Biso   1.000  Hf
  Hf7      1.0000 0.45783  0.33175  0.84108  Biso   1.000  Hf
  Hf8      1.0000 0.27719  0.13433  0.49106  Biso   1.000  Hf
  Hf9      1.0000 0.27576  0.12649  0.96534  Biso   1.000  Hf
  Hf10     1.0000 0.22348  0.38060  0.01302  Biso   1.000  Hf
  Hf11     1.0000 0.21551  0.37201  0.51385  Biso   1.000  Hf
  Hf12     1.0000 0.13426  0.52030  0.28830  Biso   1.000  Hf
  Hf13     1.0000 0.13220  0.72532  0.78953  Biso   1.000  Hf
  Hf14     1.0000 0.36029  0.76740  0.20688  Biso   1.000  Hf
  Hf15     1.0000 0.35428  0.97863  0.70328  Biso   1.000  Hf
  Hf16     1.0000 0.03592  0.67765  0.16926  Biso   1.000  Hf
  Hf17     1.0000 0.02946  0.57716  0.66419  Biso   1.000  Hf
  Hf18     1.0000 0.45961  0.91935  0.33638  Biso   1.000  Hf
  Hf19     1.0000 0.46200  0.83304  0.84120  Biso   1.000  Hf
  Hf20     1.0000 0.27095  0.62357  0.47677  Biso   1.000  Hf
  Hf21     1.0000 0.26580  0.61707  0.98070  Biso   1.000  Hf
  Hf22     1.0000 0.22879  0.86611  0.99578  Biso   1.000  Hf
  Hf23     1.0000 0.22733  0.85836  0.52015  Biso   1.000  Hf
  Hf24     1.0000 0.63839  0.02192  0.29678  Biso   1.000  Hf
  Hf25     1.0000 0.63124  0.22991  0.79614  Biso   1.000  Hf
  Hf26     1.0000 0.85663  0.27456  0.20885  Biso   1.000  Hf
  Hf27     1.0000 0.85358  0.47919  0.70722  Biso   1.000  Hf
  Hf28     1.0000 0.53365  0.16866  0.16131  Biso   1.000  Hf
  Hf29     1.0000 0.53335  0.08057  0.66176  Biso   1.000  Hf
  Hf30     1.0000 0.95261  0.43180  0.32766  Biso   1.000  Hf
  Hf31     1.0000 0.95080  0.32907  0.82642  Biso   1.000  Hf
  Hf32     1.0000 0.77229  0.13236  0.49050  Biso   1.000  Hf
  Hf33     1.0000 0.76527  0.12168  0.99310  Biso   1.000  Hf
  Hf34     1.0000 0.72026  0.38008  0.01764  Biso   1.000  Hf
  Hf35     1.0000 0.71665  0.37197  0.52034  Biso   1.000  Hf
  Hf36     1.0000 0.63295  0.51767  0.29272  Biso   1.000  Hf
  Hf37     1.0000 0.62872  0.72571  0.79288  Biso   1.000  Hf
  Hf38     1.0000 0.85347  0.76417  0.20537  Biso   1.000  Hf
  Hf39     1.0000 0.84434  0.97847  0.72987  Biso   1.000  Hf
  Hf40     1.0000 0.53334  0.66617  0.15893  Biso   1.000  Hf
  Hf41     1.0000 0.52628  0.58003  0.65934  Biso   1.000  Hf
  Hf42     1.0000 0.92205  0.92309  0.35313  Biso   1.000  Hf
  Hf43     1.0000 0.95515  0.82864  0.84221  Biso   1.000  Hf
  Hf44     1.0000 0.76725  0.62922  0.48194  Biso   1.000  Hf
  Hf45     1.0000 0.76553  0.61843  0.98184  Biso   1.000  Hf
  Hf46     1.0000 0.71969  0.87716  0.02451  Biso   1.000  Hf
  Hf47     1.0000 0.70439  0.87023  0.53203  Biso   1.000  Hf
